*SOIL-PLANT-ATMOSPHERE MODULE OUTPUT FILE

*DSSAT Cropping System Model Ver. 4.5.1.014 -Release      JAN 29, 2013; 15:02:32
                                                                                
*RUN   1        : Irrigated + Nitrogen      WHAPS045 UFMX8902    3              
 MODEL          : WHAPS045 - Wheat                                              
 EXPERIMENT     : UFMX8902 WH  Mexi (NWheat migration to DSSAT)                 
 DATA PATH      : C:\DSSAT45\WHEAT\                                             
 TREATMENT  3   : Irrigated + Nitrogen      WHAPS045                            
  
!                                                                                                                                                Soil evaporation (mm/d) by soil depth (cm):
!                                                                                                                                                0-5    5-15   15-25   25-40   40-55   55-70   70-90  90-120 120-150
@YEAR DOY   DAS   SRAA  TMAXA  TMINA   EOAA   EOPA   EOSA   ETAA   EPAA   ESAA   EFAA   EMAA    EOAC    ETAC    EPAC    ESAC    EFAC    EMAC    ES1D    ES2D    ES3D    ES4D    ES5D    ES6D    ES7D    ES8D    ES9D    TRWU
 1989 345     1  15.80  25.60   6.00  3.751  0.000  3.751  0.989  0.000  0.989  0.000  0.000    3.75    0.99    0.00    0.99    0.00    0.00   0.824   0.103   0.025   0.016   0.007   0.004   0.003   0.003   0.002   0.000
 1989 346     2  16.50  24.00   2.80  2.536  0.000  2.536  0.688  0.000  0.688  0.000  0.000    6.29    1.68    0.00    1.68    0.00    0.00   0.565   0.077   0.019   0.012   0.006   0.003   0.003   0.002   0.001   0.000
 1989 347     3  17.10  25.60   2.60  2.686  0.000  2.686  1.937  0.000  0.000  0.000  1.937    8.97    3.61    0.00    1.68    0.00    1.94   0.000   0.000   0.000   0.000   0.000   0.000   0.000   0.000   0.000   0.000
 1989 348     4  15.30  23.40   5.00  2.390  0.000  2.390  1.354  0.000  0.000  0.000  1.354   11.36    4.97    0.00    1.68    0.00    3.29   0.000   0.000   0.000   0.000   0.000   0.000   0.000   0.000   0.000   0.000
 1989 349     5  15.80  26.00   6.40  2.590  0.000  2.590  0.756  0.000  0.388  0.000  0.368   13.95    5.72    0.00    2.06    0.00    3.66   0.315   0.046   0.011   0.007   0.003   0.002   0.002   0.001   0.001   0.000
 1989 350     6  11.50  20.00   9.60  1.796  0.000  1.796  0.535  0.000  0.434  0.000  0.102   15.75    6.26    0.00    2.50    0.00    3.76   0.349   0.053   0.013   0.008   0.004   0.002   0.002   0.002   0.001   0.000
 1989 351     7   6.60  16.00  12.60  1.005  0.000  1.005  0.305  0.000  0.277  0.000  0.028   16.75    6.56    0.00    2.77    0.00    3.79   0.221   0.035   0.009   0.005   0.003   0.001   0.001   0.001   0.001   0.000
 1989 352     8   9.90  22.40  14.80  1.673  0.000  1.673  0.516  0.000  0.508  0.000  0.008   18.43    7.08    0.00    3.28    0.00    3.80   0.403   0.066   0.016   0.010   0.005   0.003   0.002   0.002   0.001   0.000
 1989 353     9  12.30  23.60  11.80  2.060  0.000  2.060  0.645  0.000  0.642  0.000  0.002   20.49    7.72    0.00    3.93    0.00    3.80   0.503   0.087   0.022   0.014   0.006   0.004   0.003   0.003   0.002   0.000
 1989 354    10  13.20  24.00  10.40  2.203  0.021  2.181  0.712  0.021  0.691  0.000  0.001   22.69    8.44    0.02    4.62    0.00    3.80   0.532   0.099   0.025   0.015   0.007   0.004   0.003   0.003   0.002   0.002
 1989 355    11  13.90  24.00   9.00  2.295  0.027  2.268  0.692  0.036  0.656  0.000  0.000   24.99    9.13    0.06    5.27    0.00    3.80   0.495   0.100   0.025   0.016   0.007   0.004   0.003   0.003   0.002   0.004
 1989 356    12  14.00  25.60  10.20  2.385  0.034  2.350  0.659  0.048  0.611  0.000  0.000   27.37    9.79    0.10    5.88    0.00    3.80   0.450   0.099   0.025   0.016   0.007   0.004   0.003   0.003   0.002   0.005
 1989 357    13  13.90  25.00   9.80  2.346  0.041  2.303  0.633  0.064  0.569  0.000  0.000   29.72   10.42    0.17    6.45    0.00    3.80   0.409   0.099   0.025   0.016   0.007   0.004   0.003   0.003   0.002   0.006
 1989 358    14  14.10  27.00  11.40  2.474  0.052  2.420  0.605  0.075  0.530  0.000  0.000   32.19   11.03    0.24    6.98    0.00    3.80   0.371   0.098   0.025   0.016   0.007   0.004   0.003   0.003   0.002   0.008
 1989 359    15  14.30  25.60   9.60  2.434  0.062  2.370  0.595  0.100  0.495  0.000  0.000   34.62   11.62    0.34    7.48    0.00    3.80   0.337   0.097   0.025   0.016   0.007   0.004   0.003   0.003   0.002   0.010
 1989 360    16  13.70  26.60  12.00  2.411  0.074  2.334  0.581  0.119  0.463  0.000  0.000   37.04   12.20    0.46    7.94    0.00    3.80   0.306   0.096   0.025   0.016   0.007   0.004   0.003   0.003   0.002   0.012
 1989 361    17  10.80  21.40  12.20  1.787  0.066  1.719  0.568  0.135  0.433  0.000  0.000   38.82   12.77    0.60    8.37    0.00    3.80   0.278   0.095   0.025   0.016   0.007   0.004   0.003   0.003   0.002   0.013
 1989 362    18  11.90  24.60  13.60  2.077  0.090  1.985  0.487  0.080  0.407  0.000  0.000   40.90   13.26    0.68    8.78    0.00    3.80   0.252   0.094   0.025   0.016   0.007   0.004   0.003   0.003   0.002   0.008
 1989 363    19  10.70  22.60  13.60  1.826  0.093  1.730  0.515  0.131  0.383  0.000  0.000   42.73   13.77    0.81    9.16    0.00    3.80   0.230   0.093   0.025   0.016   0.007   0.004   0.003   0.003   0.002   0.013
 1989 364    20   9.90  20.60  13.00  1.642  0.097  1.542  0.476  0.114  0.362  0.000  0.000   44.37   14.25    0.92    9.52    0.00    3.80   0.210   0.092   0.025   0.016   0.007   0.004   0.003   0.003   0.002   0.011
 1989 365    21  13.60  21.20   6.80  2.158  0.148  2.005  0.443  0.101  0.342  0.000  0.000   46.53   14.69    1.02    9.87    0.00    3.80   0.191   0.091   0.025   0.016   0.007   0.004   0.003   0.003   0.002   0.010
 1990 001    22  15.40  24.40   7.80  2.579  0.210  2.362  0.559  0.235  0.324  0.000  0.000   49.10   15.25    1.26   10.19    0.00    3.80   0.174   0.089   0.025   0.016   0.007   0.004   0.003   0.003   0.002   0.023
 1990 002    23  14.10  22.60   8.60  2.331  0.227  2.097  0.696  0.389  0.307  0.000  0.000   51.44   15.95    1.65   10.50    0.00    3.80   0.159   0.088   0.025   0.016   0.007   0.004   0.003   0.003   0.002   0.039
 1990 003    24  13.50  22.40   9.60  2.255  0.261  1.986  0.653  0.362  0.290  0.000  0.000   53.69   16.60    2.01   10.79    0.00    3.80   0.145   0.085   0.025   0.016   0.007   0.004   0.003   0.003   0.002   0.036
 1990 004    25  10.80  16.40   8.20  1.649  0.224  1.419  0.664  0.389  0.275  0.000  0.000   55.34   17.26    2.40   11.06    0.00    3.80   0.132   0.083   0.024   0.016   0.007   0.004   0.003   0.003   0.002   0.039
 1990 005    26  14.80  20.40   5.00  2.330  0.362  1.958  0.459  0.198  0.261  0.000  0.000   57.67   17.72    2.60   11.32    0.00    3.80   0.120   0.081   0.024   0.016   0.007   0.004   0.003   0.003   0.002   0.020
 1990 006    27  15.50  20.00   3.20  2.400  0.437  1.951  0.806  0.557  0.249  0.000  0.000   60.07   18.53    3.15   11.57    0.00    3.80   0.110   0.080   0.024   0.016   0.007   0.004   0.003   0.003   0.002   0.056
 1990 007    28  16.40  24.60   5.80  2.787  0.596  2.177  0.926  0.689  0.236  0.000  0.000   62.86   19.45    3.84   11.81    0.00    3.80   0.100   0.077   0.024   0.016   0.007   0.004   0.003   0.003   0.002   0.069
 1990 008    29  17.80  26.00   3.80  3.052  0.764  2.270  1.386  1.162  0.224  0.000  0.000   65.91   20.84    5.00   12.03    0.00    3.80   0.091   0.073   0.024   0.016   0.007   0.004   0.003   0.003   0.002   0.116
 1990 009    30  17.70  27.00   5.00  3.134  0.917  2.198  1.891  1.680  0.211  0.000  0.000   69.04   22.73    6.68   12.25    0.00    3.80   0.083   0.069   0.024   0.015   0.007   0.004   0.003   0.003   0.002   0.168
 1990 010    31  17.80  29.20   7.00  3.324  1.123  2.181  2.226  2.030  0.197  0.000  0.000   72.37   24.96    8.71   12.44    0.00    3.80   0.076   0.063   0.023   0.015   0.007   0.004   0.003   0.003   0.002   0.203
 1990 011    32  16.50  27.60   8.40  3.086  1.186  1.881  2.712  2.530  0.182  0.000  0.000   75.45   27.67   11.24   12.62    0.00    3.80   0.069   0.056   0.022   0.015   0.007   0.004   0.003   0.003   0.002   0.253
 1990 012    33  15.10  27.00  11.00  2.891  1.245  1.628  2.561  2.393  0.168  0.000  0.000   78.34   30.23   13.64   12.79    0.00    3.80   0.063   0.049   0.021   0.015   0.007   0.004   0.003   0.003   0.002   0.239
 1990 013    34  15.80  27.00   9.60  3.019  1.439  1.560  2.733  2.198  0.535  0.000  0.000   81.36   32.96   15.84   13.33    0.00    3.80   0.438   0.058   0.015   0.010   0.005   0.003   0.002   0.002   0.001   0.220
 1990 014    35  15.50  25.00   8.20  2.899  1.503  1.376  3.140  2.667  0.472  0.000  0.000   84.26   36.10   18.50   13.80    0.00    3.80   0.115   0.078   0.041   0.047   0.039   0.032   0.036   0.045   0.038   0.267
 1990 015    36  16.30  24.60   6.00  2.993  1.659  1.313  3.075  2.617  0.458  0.000  0.000   87.25   39.18   21.12   14.26    0.00    3.80   0.102   0.073   0.043   0.048   0.039   0.033   0.037   0.045   0.038   0.262
 1990 016    37  13.60  23.00  10.00  2.547  1.493  1.037  3.406  3.037  0.369  0.000  0.000   89.80   42.58   24.16   14.63    0.00    3.80   0.309   0.038   0.009   0.006   0.003   0.002   0.001   0.001   0.001   0.304
 1990 017    38  15.80  21.20   3.80  2.751  1.698  1.032  2.483  2.108  0.375  0.000  0.000   92.55   45.07   26.26   15.00    0.00    3.80   0.310   0.040   0.010   0.006   0.003   0.002   0.002   0.001   0.001   0.211
 1990 018    39  14.50  20.00   5.20  2.526  1.617  0.890  2.999  2.670  0.329  0.000  0.000   95.08   48.07   28.94   15.33    0.00    3.80   0.269   0.036   0.010   0.006   0.003   0.002   0.001   0.001   0.001   0.267
 1990 019    40  14.00  17.60   3.80  2.334  1.545  0.771  2.508  2.219  0.289  0.000  0.000   97.41   50.57   31.15   15.62    0.00    3.80   0.233   0.033   0.009   0.006   0.003   0.002   0.001   0.001   0.001   0.222
 1990 020    41  15.50  20.00   3.20  2.668  1.814  0.834  2.134  1.818  0.316  0.000  0.000  100.08   52.71   32.97   15.94    0.00    3.80   0.250   0.038   0.011   0.007   0.004   0.002   0.002   0.002   0.001   0.182
 1990 021    42  17.30  24.60   3.60  3.193  2.232  0.939  3.011  2.652  0.358  0.000  0.000  103.27   55.72   35.62   16.29    0.00    3.80   0.279   0.046   0.013   0.009   0.004   0.003   0.002   0.002   0.001   0.265
 1990 022    43  13.80  23.80  10.40  2.682  1.934  0.732  4.606  4.324  0.281  0.000  0.000  105.96   60.32   39.95   16.58    0.00    3.80   0.213   0.038   0.011   0.008   0.004   0.002   0.002   0.002   0.001   0.432
 1990 023    44  12.10  23.00  12.80  2.387  1.796  0.578  2.681  2.458  0.223  0.000  0.000  108.34   63.01   42.41   16.80    0.00    3.80   0.165   0.032   0.009   0.007   0.004   0.002   0.002   0.002   0.001   0.246
 1990 024    45  14.70  27.00  11.80  3.033  2.361  0.656  2.391  2.137  0.254  0.000  0.000  111.38   65.40   44.54   17.05    0.00    3.80   0.185   0.038   0.011   0.008   0.004   0.003   0.002   0.002   0.001   0.214
 1990 025    46  16.50  30.20  11.00  3.527  2.834  0.675  4.152  3.889  0.262  0.000  0.000  114.90   69.55   48.43   17.31    0.00    3.80   0.189   0.040   0.011   0.009   0.005   0.003   0.002   0.002   0.001   0.389
 1990 026    47  17.70  28.00   6.00  3.552  2.930  0.602  5.713  5.478  0.235  0.000  0.000  118.46   75.26   53.91   17.55    0.00    3.80   0.168   0.035   0.010   0.008   0.005   0.003   0.002   0.002   0.001   0.548
 1990 027    48  16.50  27.00   8.00  3.336  2.827  0.492  6.392  6.200  0.192  0.000  0.000  121.79   81.65   60.11   17.74    0.00    3.80   0.139   0.027   0.008   0.006   0.004   0.003   0.002   0.002   0.001   0.620
 1990 028    49  15.90  26.60   8.80  3.229  2.797  0.416  5.552  5.389  0.163  0.000  0.000  125.02   87.20   65.50   17.90    0.00    3.80   0.120   0.022   0.006   0.005   0.003   0.002   0.002   0.002   0.001   0.539
 1990 029    50  16.10  26.40   8.20  3.252  2.868  0.369  5.246  5.101  0.145  0.000  0.000  128.27   92.45   70.60   18.05    0.00    3.80   0.107   0.019   0.005   0.004   0.003   0.002   0.002   0.002   0.001   0.510
 1990 030    51  16.70  26.20   6.60  3.326  2.973  0.337  5.425  5.293  0.133  0.000  0.000  131.60   97.88   75.89   18.18    0.00    3.80   0.098   0.017   0.005   0.003   0.003   0.002   0.002   0.002   0.001   0.529
 1990 031    52  10.30  20.00  12.60  1.997  1.805  0.183  5.805  5.733  0.072  0.000  0.000  133.60  103.68   81.63   18.25    0.00    3.80   0.054   0.009   0.003   0.001   0.001   0.001   0.001   0.001   0.001   0.573
 1990 032    53  13.00  18.00   9.60  2.391  2.174  0.206  1.677  1.595  0.081  0.000  0.000  135.99  105.36   83.22   18.34    0.00    3.80   0.061   0.011   0.003   0.001   0.001   0.001   0.001   0.001   0.001   0.160
 1990 033    54  16.00  20.20   7.60  2.980  2.727  0.239  1.913  1.819  0.095  0.000  0.000  138.97  107.27   85.04   18.43    0.00    3.80   0.070   0.013   0.004   0.002   0.002   0.001   0.001   0.001   0.001   0.182
 1990 034    55  18.40  22.00   5.20  3.439  3.167  0.256  3.313  3.212  0.101  0.000  0.000  142.41  110.58   88.25   18.53    0.00    3.80   0.075   0.014   0.004   0.002   0.002   0.002   0.002   0.001   0.001   0.321
 1990 035    56  20.20  23.00   2.80  3.748  3.471  0.259  4.812  4.709  0.103  0.000  0.000  146.15  115.40   92.96   18.63    0.00    3.80   0.075   0.014   0.004   0.002   0.002   0.002   0.002   0.001   0.001   0.471
 1990 036    57  20.30  23.40   3.00  3.796  3.532  0.246  5.994  5.897  0.098  0.000  0.000  149.95  121.39   98.86   18.73    0.00    3.80   0.071   0.014   0.004   0.001   0.001   0.001   0.002   0.001   0.001   0.590
 1990 037    58  20.20  23.60   3.40  3.803  3.550  0.235  6.204  6.111  0.093  0.000  0.000  153.75  127.59  104.97   18.83    0.00    3.80   0.081   0.009   0.001   0.000   0.000   0.000   0.000   0.000   0.000   0.611
 1990 038    59  17.20  23.60   9.00  3.407  3.208  0.185  6.229  6.155  0.073  0.000  0.000  157.16  133.82  111.12   18.90    0.00    3.80   0.023   0.015   0.005   0.001   0.001   0.004   0.007   0.009   0.007   0.616
 1990 039    60  13.90  22.00  12.40  2.778  2.634  0.134  4.663  4.610  0.054  0.000  0.000  159.94  138.49  115.73   18.95    0.00    3.80   0.015   0.011   0.004   0.001   0.001   0.003   0.005   0.007   0.006   0.461
 1990 040    61  16.70  22.40   8.60  3.249  3.094  0.142  2.838  2.781  0.058  0.000  0.000  163.19  141.32  118.51   19.01    0.00    3.80   0.050   0.006   0.001   0.000   0.000   0.000   0.000   0.000   0.000   0.278
 1990 041    62  20.50  26.40   5.60  4.095  3.919  0.161  4.236  4.170  0.066  0.000  0.000  167.28  145.56  122.68   19.08    0.00    3.80   0.057   0.007   0.001   0.000   0.000   0.000   0.000   0.000   0.000   0.417
 1990 042    63  20.90  28.00   6.40  4.290  4.122  0.152  7.481  7.417  0.063  0.000  0.000  171.57  153.04  130.10   19.14    0.00    3.80   0.053   0.007   0.001   0.000   0.000   0.000   0.000   0.000   0.000   0.742
 1990 043    64  20.70  28.20   7.00  4.282  4.125  0.142  8.226  8.166  0.060  0.000  0.000  175.85  161.27  138.27   19.20    0.00    3.80   0.049   0.008   0.002   0.000   0.000   0.000   0.000   0.000   0.000   0.817
 1990 044    65  16.30  24.20  11.00  3.317  3.200  0.106  8.137  8.093  0.045  0.000  0.000  179.17  169.40  146.36   19.24    0.00    3.80   0.035   0.006   0.001   0.000   0.000   0.000   0.000   0.000   0.000   0.809
 1990 045    66  11.00  18.40  12.40  2.102  2.025  0.069  3.578  3.548  0.029  0.000  0.000  181.27  172.98  149.91   19.27    0.00    3.80   0.023   0.004   0.001   0.000   0.000   0.000   0.000   0.000   0.000   0.355
 1990 046    67  13.40  17.80   9.00  2.462  2.369  0.083  1.072  1.037  0.036  0.000  0.000  183.73  174.05  150.95   19.31    0.00    3.80   0.028   0.005   0.001   0.000   0.000   0.000   0.000   0.000   0.000   0.104
 1990 047    68  18.40  20.40   3.60  3.334  3.204  0.116  1.562  1.513  0.049  0.000  0.000  187.07  175.62  152.46   19.36    0.00    3.80   0.039   0.006   0.002   0.000   0.000   0.000   0.000   0.000   0.000   0.151
 1990 048    69  19.80  22.40   3.00  3.668  3.522  0.130  3.324  3.268  0.056  0.000  0.000  190.74  178.94  155.73   19.41    0.00    3.80   0.045   0.007   0.002   0.000   0.000   0.000   0.000   0.001   0.000   0.327
 1990 049    70  20.30  23.00   2.60  3.777  3.624  0.137  3.911  3.852  0.059  0.000  0.000  194.51  182.85  159.58   19.47    0.00    3.80   0.047   0.007   0.002   0.000   0.000   0.000   0.001   0.001   0.000   0.385
 1990 050    71  20.90  24.00   2.40  3.934  3.772  0.146  3.795  3.732  0.063  0.000  0.000  198.45  186.65  163.31   19.54    0.00    3.80   0.051   0.008   0.002   0.000   0.000   0.000   0.001   0.001   0.000   0.373
 1990 051    72  19.30  22.40   4.00  3.607  3.455  0.137  3.745  3.686  0.059  0.000  0.000  202.05  190.39  167.00   19.59    0.00    3.80   0.048   0.007   0.002   0.000   0.000   0.000   0.000   0.001   0.000   0.369
 1990 052    73  20.80  25.00   3.60  4.010  3.838  0.156  2.686  2.619  0.067  0.000  0.000  206.06  193.08  169.61   19.66    0.00    3.80   0.055   0.008   0.002   0.000   0.000   0.000   0.000   0.001   0.000   0.262
 1990 053    74  20.40  25.40   4.80  3.995  3.820  0.160  3.243  3.174  0.069  0.000  0.000  210.06  196.32  172.79   19.73    0.00    3.80   0.056   0.008   0.002   0.000   0.000   0.000   0.000   0.001   0.000   0.317
 1990 054    75  22.20  29.00   4.60  4.543  4.339  0.187  2.927  2.846  0.081  0.000  0.000  214.60  199.25  175.63   19.81    0.00    3.80   0.065   0.010   0.003   0.001   0.000   0.000   0.000   0.001   0.001   0.285
 1990 055    76  21.10  29.20   7.20  4.421  4.217  0.187  3.578  3.497  0.081  0.000  0.000  219.02  202.82  179.13   19.89    0.00    3.80   0.066   0.010   0.003   0.001   0.000   0.000   0.000   0.001   0.001   0.350
 1990 056    77  19.60  28.60   9.60  4.156  3.959  0.182  2.934  2.855  0.079  0.000  0.000  223.18  205.76  181.99   19.97    0.00    3.80   0.064   0.010   0.003   0.001   0.000   0.000   0.000   0.001   0.001   0.285
 1990 057    78  18.90  27.20   9.60  3.939  3.745  0.180  0.091  0.013  0.078  0.000  0.000  227.12  205.85  182.00   20.05    0.00    3.80   0.063   0.010   0.003   0.001   0.000   0.000   0.000   0.001   0.001   0.001
 1990 058    79  18.00  27.00  11.00  3.784  3.592  0.179  0.099  0.021  0.078  0.000  0.000  230.90  205.95  182.02   20.13    0.00    3.80   0.062   0.010   0.003   0.001   0.000   0.000   0.000   0.001   0.001   0.002
 1990 059    80  18.30  28.00  11.40  3.906  3.700  0.191  0.104  0.021  0.083  0.000  0.000  234.81  206.05  182.04   20.21    0.00    3.80   0.066   0.011   0.003   0.001   0.000   0.000   0.000   0.001   0.001   0.002
 1990 060    81  24.10  27.40   7.60  4.950  4.680  0.252  0.131  0.021  0.110  0.000  0.000  239.76  206.18  182.06   20.32    0.00    3.80   0.087   0.015   0.004   0.001   0.000   0.000   0.000   0.001   0.001   0.002
 1990 061    82  24.90  28.60   7.60  5.191  4.907  0.264  0.136  0.021  0.115  0.000  0.000  244.95  206.32  182.08   20.44    0.00    3.80   0.090   0.016   0.005   0.001   0.000   0.000   0.000   0.002   0.001   0.002
 1990 062    83  24.60  30.20   9.60  5.310  5.005  0.286  0.146  0.021  0.125  0.000  0.000  250.26  206.47  182.10   20.56    0.00    3.80   0.097   0.018   0.005   0.001   0.001   0.000   0.000   0.002   0.001   0.002
 1990 063    84  22.10  28.00  11.40  4.712  4.427  0.268  0.139  0.021  0.118  0.000  0.000  254.97  206.60  182.13   20.68    0.00    3.80   0.090   0.017   0.005   0.001   0.000   0.000   0.000   0.002   0.001   0.002
 1990 064    85  19.10  25.00  12.60  3.964  3.709  0.239  0.126  0.021  0.105  0.000  0.000  258.94  206.73  182.15   20.78    0.00    3.80   0.079   0.016   0.005   0.001   0.000   0.000   0.000   0.002   0.001   0.002
 1990 065    86  19.70  24.80  11.60  4.044  3.768  0.259  0.135  0.021  0.114  0.000  0.000  262.98  206.87  182.17   20.90    0.00    3.80   0.085   0.018   0.005   0.001   0.001   0.000   0.000   0.002   0.001   0.002
 1990 066    87  23.80  27.20   8.00  4.883  4.532  0.331  0.167  0.021  0.145  0.000  0.000  267.86  207.03  182.19   21.04    0.00    3.80   0.107   0.024   0.007   0.002   0.001   0.000   0.001   0.002   0.001   0.002
 1990 067    88  25.00  27.40   6.20  5.063  4.680  0.361  0.180  0.021  0.159  0.000  0.000  272.93  207.21  182.21   21.20    0.00    3.80   0.115   0.028   0.008   0.002   0.001   0.000   0.001   0.003   0.002   0.002
 1990 068    89  22.10  25.20   8.60  4.440  4.088  0.333  0.168  0.021  0.146  0.000  0.000  277.37  207.38  182.23   21.35    0.00    3.80   0.104   0.027   0.008   0.002   0.001   0.000   0.001   0.003   0.002   0.002
 1990 069    90  16.10  23.00  14.20  3.296  3.023  0.259  0.135  0.021  0.114  0.000  0.000  280.66  207.52  182.25   21.46    0.00    3.80   0.079   0.022   0.007   0.001   0.001   0.000   0.001   0.002   0.001   0.002
 1990 070    91  21.40  23.00   7.40  4.133  3.774  0.340  0.171  0.022  0.149  0.000  0.000  284.79  207.69  182.27   21.61    0.00    3.80   0.101   0.030   0.009   0.002   0.001   0.001   0.001   0.003   0.002   0.002
 1990 071    92  24.40  25.60   5.40  4.788  4.352  0.414  0.162  0.022  0.140  0.000  0.000  289.58  207.85  182.30   21.75    0.00    3.80   0.092   0.030   0.009   0.002   0.001   0.001   0.001   0.003   0.002   0.002
 1990 072    93  21.40  23.20   7.60  4.147  3.755  0.373  0.154  0.022  0.132  0.000  0.000  293.73  208.00  182.32   21.88    0.00    3.80   0.084   0.030   0.009   0.002   0.001   0.001   0.001   0.003   0.002   0.002
 1990 073    94  23.80  22.80   3.60  4.427  4.006  0.399  0.147  0.023  0.124  0.000  0.000  298.16  208.15  182.34   22.01    0.00    3.80   0.076   0.030   0.009   0.002   0.001   0.001   0.001   0.003   0.002   0.002
 1990 074    95  25.10  26.00   4.60  4.914  4.446  0.445  0.141  0.024  0.117  0.000  0.000  303.07  208.29  182.37   22.12    0.00    3.80   0.070   0.029   0.009   0.002   0.001   0.001   0.001   0.003   0.002   0.002
 1990 075    96  25.70  27.00   4.60  5.097  4.608  0.465  0.135  0.024  0.111  0.000  0.000  308.17  208.43  182.39   22.24    0.00    3.80   0.064   0.029   0.009   0.002   0.001   0.001   0.001   0.003   0.002   0.002
 1990 076    97  26.20  29.40   6.00  5.416  4.893  0.499  0.130  0.025  0.105  0.000  0.000  313.58  208.56  182.42   22.34    0.00    3.80   0.058   0.029   0.009   0.002   0.001   0.001   0.001   0.003   0.002   0.003
 1990 077    98  25.60  29.00   6.80  5.300  4.781  0.495  0.126  0.027  0.100  0.000  0.000  318.88  208.68  182.44   22.44    0.00    3.80   0.053   0.029   0.009   0.002   0.001   0.001   0.001   0.003   0.002   0.003
 1990 078    99  27.10  31.00   6.00  5.709  5.141  0.543  0.123  0.028  0.095  0.000  0.000  324.59  208.81  182.47   22.54    0.00    3.80   0.048   0.029   0.009   0.002   0.001   0.001   0.001   0.003   0.002   0.003
 1990 079   100  26.60  33.20   9.20  5.894  5.297  0.573  0.120  0.030  0.090  0.000  0.000  330.49  208.93  182.50   22.63    0.00    3.80   0.044   0.029   0.009   0.002   0.001   0.001   0.001   0.003   0.002   0.003
 1990 080   101  24.90  31.00  10.00  5.411  4.849  0.539  0.118  0.031  0.086  0.000  0.000  335.90  209.04  182.53   22.71    0.00    3.80   0.040   0.028   0.009   0.002   0.001   0.001   0.001   0.003   0.002   0.003
 1990 081   102  25.40  31.60   9.60  5.538  4.945  0.570  0.116  0.033  0.083  0.000  0.000  341.44  209.16  182.56   22.79    0.00    3.80   0.036   0.028   0.009   0.002   0.001   0.001   0.001   0.003   0.002   0.003
 1990 082   103  25.80  31.20   8.60  5.553  4.937  0.592  0.114  0.035  0.079  0.000  0.000  346.99  209.27  182.60   22.87    0.00    3.80   0.033   0.028   0.009   0.002   0.001   0.001   0.001   0.003   0.002   0.003
 1990 083   104  24.70  30.80  10.00  5.347  4.730  0.594  0.111  0.035  0.076  0.000  0.000  352.34  209.38  182.63   22.95    0.00    3.80   0.030   0.028   0.009   0.002   0.001   0.001   0.001   0.003   0.002   0.004
 1990 084   105  23.30  30.00  11.60  5.056  4.448  0.587  0.108  0.035  0.073  0.000  0.000  357.39  209.49  182.67   23.02    0.00    3.80   0.028   0.028   0.009   0.002   0.001   0.001   0.001   0.003   0.002   0.004
 1990 085   106  21.40  27.60  12.00  4.525  3.953  0.551  0.106  0.035  0.071  0.000  0.000  361.92  209.60  182.70   23.09    0.00    3.80   0.025   0.028   0.009   0.002   0.001   0.001   0.001   0.003   0.002   0.004
 1990 086   107  20.70  30.20  15.60  4.634  4.018  0.596  0.103  0.035  0.068  0.000  0.000  366.55  209.70  182.74   23.16    0.00    3.80   0.023   0.027   0.009   0.002   0.001   0.001   0.001   0.003   0.002   0.004
 1990 087   108  21.60  29.60  13.80  4.733  4.067  0.645  0.101  0.035  0.066  0.000  0.000  371.28  209.80  182.77   23.23    0.00    3.80   0.021   0.027   0.009   0.002   0.001   0.001   0.001   0.003   0.002   0.004
 1990 088   109  18.80  24.00  12.00  3.793  3.219  0.555  0.099  0.035  0.064  0.000  0.000  375.08  209.90  182.81   23.29    0.00    3.80   0.019   0.027   0.009   0.002   0.001   0.001   0.001   0.003   0.002   0.004
 1990 089   110   6.40  25.40  24.00  1.440  1.208  0.226  0.097  0.035  0.062  0.000  0.000  376.52  210.00  182.84   23.36    0.00    3.80   0.017   0.027   0.009   0.002   0.001   0.001   0.001   0.003   0.002   0.004
 1990 090   111  20.60  23.40   9.00  4.010  3.315  0.673  0.096  0.035  0.061  0.000  0.000  380.53  210.10  182.88   23.42    0.00    3.80   0.016   0.027   0.009   0.002   0.001   0.001   0.001   0.003   0.002   0.003
 1990 091   112  24.40  25.20   9.40  4.865  3.940  0.898  0.094  0.035  0.059  0.000  0.000  385.39  210.19  182.91   23.47    0.00    3.80   0.014   0.027   0.009   0.002   0.001   0.001   0.001   0.003   0.002   0.003
 1990 092   113  24.70  27.20  11.00  5.105  4.072  1.006  0.092  0.035  0.058  0.000  0.000  390.50  210.28  182.95   23.53    0.00    3.80   0.013   0.027   0.009   0.002   0.001   0.001   0.001   0.003   0.002   0.003
 1990 093   114  26.20  28.80  10.60  5.491  4.297  1.164  0.091  0.035  0.056  0.000  0.000  395.99  210.37  182.98   23.59    0.00    3.80   0.012   0.026   0.009   0.002   0.001   0.001   0.001   0.003   0.002   0.003
 1990 094   115  29.00  31.00   8.80  6.134  4.684  1.415  0.090  0.035  0.055  0.000  0.000  402.12  210.46  183.02   23.64    0.00    3.80   0.011   0.026   0.009   0.002   0.001   0.001   0.001   0.003   0.002   0.003
 1990 095   116  23.80  28.00  13.00  5.006  3.714  1.265  0.089  0.035  0.054  0.000  0.000  407.13  210.55  183.05   23.70    0.00    3.80   0.010   0.026   0.009   0.002   0.001   0.001   0.001   0.003   0.002   0.003
 1990 096   117  26.50  28.60  10.00  5.463  3.914  1.517  0.088  0.035  0.053  0.000  0.000  412.59  210.64  183.09   23.75    0.00    3.80   0.009   0.026   0.009   0.002   0.001   0.001   0.001   0.003   0.002   0.003
 1990 097   118  23.30  27.20  12.80  4.809  3.299  1.482  0.697  0.035  0.662  0.000  0.000  417.40  211.34  183.12   24.41    0.00    3.80   0.579   0.066   0.009   0.002   0.001   0.001   0.001   0.003   0.002   0.003
 1990 098   119  26.80  30.60  11.60  5.714  3.732  1.949  3.798  2.927  0.872  0.000  0.000  423.11  215.13  186.05   25.28    0.00    3.80   0.316   0.207   0.058   0.017   0.013   0.011   0.024   0.123   0.104   0.293
 1990 099   120  26.90  31.80  12.60  5.823  3.572  2.218  4.926  3.923  1.004  0.000  0.000  428.94  220.06  189.97   26.29    0.00    3.80   0.336   0.232   0.080   0.021   0.016   0.014   0.028   0.150   0.127   0.392
 1990 100   121  27.40  32.20  12.40  5.912  3.343  2.534  4.509  3.674  0.835  0.000  0.000  434.85  224.57  193.65   27.12    0.00    3.80   0.727   0.086   0.013   0.002   0.001   0.001   0.001   0.003   0.002   0.367
 1990 101   122  28.60  35.20  13.60  6.441  3.267  3.138  4.104  3.442  0.662  0.000  0.000  441.29  228.67  197.09   27.79    0.00    3.80   0.565   0.076   0.012   0.002   0.001   0.001   0.001   0.003   0.002   0.344
 1990 102   123  29.50  34.00  11.00  6.312  2.763  3.512  3.648  3.146  0.502  0.000  0.000  447.60  232.32  200.23   28.29    0.00    3.80   0.415   0.067   0.012   0.002   0.001   0.001   0.001   0.003   0.002   0.315
 1990 103   124  29.50  34.00  11.00  5.959  0.355  5.592  0.881  0.501  0.380  0.000  0.000  453.56  233.20  200.74   28.67    0.00    3.80   0.302   0.058   0.011   0.002   0.001   0.001   0.001   0.003   0.002   0.050
 1990 104   125  30.40  35.00  10.60  6.134  0.000  6.134  0.360  0.015  0.345  0.000  0.000  459.69  233.56  200.75   29.01    0.00    3.80   0.269   0.057   0.011   0.002   0.001   0.001   0.001   0.003   0.002   0.002
 1990 105   126  31.30  36.60  10.60  6.897  0.000  6.897  0.337  0.016  0.321  0.000  0.000  466.59  233.90  200.77   29.33    0.00    3.80   0.245   0.056   0.011   0.002   0.001   0.001   0.001   0.003   0.002   0.002
 1990 106   127  27.80  35.00  14.60  5.778  0.000  5.778  0.317  0.018  0.299  0.000  0.000  472.37  234.22  200.79   29.63    0.00    3.80   0.224   0.056   0.011   0.002   0.001   0.001   0.001   0.003   0.002   0.002
