*PLANT N OUTPUT FILE

*DSSAT Cropping System Model Ver. 4.5.1.014 -Release      JAN 29, 2013; 15:02:32
                                                                                
*RUN   1        : Irrigated + Nitrogen      WHAPS045 UFMX8902    3              
 MODEL          : WHAPS045 - Wheat                                              
 EXPERIMENT     : UFMX8902 WH  Mexi (NWheat migration to DSSAT)                 
 DATA PATH      : C:\DSSAT45\WHEAT\                                             
 TREATMENT  3   : Irrigated + Nitrogen      WHAPS045                            
  
@YEAR DOY   DAS   DAP   CNAD   GNAD   VNAD   GN%D   VN%D   NUPC   LNAD   SNAD   LN%D   SN%D   RN%D   SNN0C   SNN1C NFact1 NFact2 NFact3 NFact4  RootN lfshthN
 1989 345     1     0    0.0    0.0    0.0   0.00   0.00    0.0    0.0    0.0    0.0   0.00   0.00    0.00    0.00   1.00   1.00   1.00   1.00   0.00   0.00
 1989 346     2     1    0.0    0.0    0.0   0.00   0.00    0.0    0.0    0.0    0.0   0.00   0.00    0.00    0.00   1.00   1.00   1.00   1.00   0.00   0.00
 1989 347     3     2    0.0    0.0    0.0   0.00   0.00    0.0    0.0    0.0    0.0   0.00   0.00    0.00    0.00   1.00   1.00   1.00   1.00   0.00   0.00
 1989 348     4     3    0.0    0.0    0.0   0.00   0.00    0.0    0.0    0.0    0.0   0.00   0.00    0.00    0.00   1.00   1.00   1.00   1.00   0.00   0.00
 1989 349     5     4    0.0    0.0    0.0   0.00   0.00    0.0    0.0    0.0    0.0   0.00   0.00    0.00    0.00   1.00   1.00   1.00   1.00   0.00   0.00
 1989 350     6     5    0.0    0.0    0.0   0.00   0.00    0.0    0.0    0.0    0.0   0.00   0.00    0.00    0.00   1.00   1.00   1.00   1.00   0.00   0.00
 1989 351     7     6    0.0    0.0    0.0   0.00   0.00    0.0    0.0    0.0    0.0   0.00   0.00    0.00    0.00   1.00   1.00   1.00   1.00   0.00   0.00
 1989 352     8     7    0.0    0.0    0.0   0.00   0.00    0.0    0.0    0.0    0.0   0.00   0.00    0.00    0.00   1.00   1.00   1.00   1.00   0.00   0.00
 1989 353     9     8    0.0    0.0    0.0   0.00   0.00    0.1    0.4    0.0    0.0   0.00   0.00    0.00    0.00   1.00   1.00   1.00   1.00   0.80   0.31
 1989 354    10     9    0.0    0.0    0.0   0.00   0.00    0.4    0.7    0.0    0.0   0.00   0.00    0.00    0.00   1.00   1.00   1.00   1.00   0.79   0.31
 1989 355    11    10    0.0    0.0    0.0   0.00   0.00    0.9    1.2    0.0    0.0   0.00   0.00    0.00    0.00   1.00   1.00   1.00   1.00   0.79   0.31
 1989 356    12    11    0.0    0.0    0.0   0.00   0.00    1.4    1.7    0.0    0.0   0.00   0.00    0.00    0.00   1.00   1.00   1.00   1.00   0.78   0.31
 1989 357    13    12    0.0    0.0    0.0   0.00   0.00    2.1    2.4    0.0    0.0   0.00   0.00    0.00    0.00   1.00   1.00   1.00   1.00   0.77   0.31
 1989 358    14    13    0.0    0.0    0.0   0.00   0.00    2.5    2.8    0.0    0.0   0.00   0.00    0.00    0.00   1.00   1.00   1.00   1.00   0.76   0.31
 1989 359    15    14    0.0    0.0    0.0   0.00   0.00    3.0    3.0    0.0    0.0   0.00   0.00    0.00    0.00   1.00   1.00   1.00   1.00   0.75   0.55
 1989 360    16    15    0.0    0.0    0.0   0.00   0.00    3.2    3.1    0.0    0.0   0.00   0.00    0.00    0.00   1.00   1.00   1.00   1.00   0.75   0.69
 1989 361    17    16    0.0    0.0    0.0   0.00   0.00    3.5    3.2    0.0    0.0   0.00   0.00    0.00    0.00   1.00   1.00   1.00   1.00   0.74   0.83
 1989 362    18    17    0.0    0.0    0.0   0.00   0.00    3.8    3.4    0.0    0.0   0.00   0.00    0.00    0.00   1.00   1.00   1.00   1.00   0.73   1.02
 1989 363    19    18    0.0    0.0    0.0   0.00   0.00    4.1    3.5    0.0    0.0   0.00   0.00    0.00    0.00   1.00   1.00   1.00   1.00   0.73   1.21
 1989 364    20    19    0.0    0.0    0.0   0.00   0.00    4.5    3.7    0.0    0.0   0.00   0.00    0.00    0.00   1.00   1.00   1.00   1.00   0.72   1.42
 1989 365    21    20    0.0    0.0    0.0   0.00   0.00    5.2    4.0    0.0    0.0   0.00   0.00    0.00    0.00   1.00   1.00   1.00   1.00   0.81   1.73
 1990 001    22    21    0.0    0.0    0.0   0.00   0.00    6.1    4.4    0.0    0.0   0.00   0.00    0.00    0.00   1.00   1.00   1.00   1.00   0.93   2.12
 1990 002    23    22    0.0    0.0    0.0   0.00   0.00    7.0    4.8    0.0    0.0   0.00   0.00    0.00    0.00   1.00   1.00   1.00   1.00   1.07   2.55
 1990 003    24    23    0.0    0.0    0.0   0.00   0.00    8.2    5.2    0.0    0.0   0.00   0.00    0.00    0.00   1.00   1.00   1.00   1.00   1.22   3.04
 1990 004    25    24    0.0    0.0    0.0   0.00   0.00    9.3    5.7    0.0    0.0   0.00   0.00    0.00    0.00   1.00   1.00   1.00   1.00   1.38   3.55
 1990 005    26    25    0.0    0.0    0.0   0.00   0.00   10.9    6.4    0.0    0.0   0.00   0.00    0.00    0.00   1.00   1.00   1.00   1.00   1.60   4.23
 1990 006    27    26    0.0    0.0    0.0   0.00   0.00   12.8    7.2    0.0    0.0   0.00   0.00    0.00    0.00   1.00   1.00   1.00   1.00   1.86   5.07
 1990 007    28    27    0.0    0.0    0.0   0.00   0.00   14.7    8.0    0.0    0.0   0.00   0.00    0.00    0.00   1.00   1.00   1.00   1.00   2.13   5.90
 1990 008    29    28    0.0    0.0    0.0   0.00   0.00   16.6    8.8    0.0    0.0   0.00   0.00    0.00    0.00   1.00   1.00   1.00   1.00   2.39   6.71
 1990 009    30    29    0.0    0.0    0.0   0.00   0.00   18.3    9.6    0.0    0.0   0.00   0.00    0.00    0.00   1.00   1.00   1.00   1.00   2.65   7.47
 1990 010    31    30    0.0    0.0    0.0   0.00   0.00   19.9   10.3    0.0    0.0   0.00   0.00    0.00    0.00   1.00   1.00   1.00   1.00   2.88   8.19
 1990 011    32    31    0.0    0.0    0.0   0.00   0.00   21.3   10.9    0.0    0.0   0.00   0.00    0.00    0.00   1.00   1.00   1.00   1.00   3.10   8.82
 1990 012    33    32    0.0    0.0    0.0   0.00   0.00   22.6   11.5    0.0    0.0   0.00   0.00    0.00    0.00   1.00   1.00   1.00   1.00   3.30   9.41
 1990 013    34    33    0.0    0.0    0.0   0.00   0.00   28.6   13.9    0.0    0.0   0.00   0.00    0.00    0.00   1.00   1.00   1.00   1.00   4.37  11.88
 1990 014    35    34    0.0    0.0    0.0   0.00   0.00   34.6   16.2    0.0    0.0   0.00   0.00    0.00    0.00   1.00   1.00   1.00   1.00   5.72  14.19
 1990 015    36    35    0.0    0.0    0.0   0.00   0.00   40.6   18.2    0.0    0.0   0.00   0.00    0.00    0.00   1.00   1.00   1.00   1.00   7.50  16.28
 1990 016    37    36    0.0    0.0    0.0   0.00   0.00   46.6   20.2    0.0    0.0   0.00   0.00    0.00    0.00   1.00   1.00   1.00   1.00   9.35  18.33
 1990 017    38    37    0.0    0.0    0.0   0.00   0.00   52.6   21.8    0.0    0.0   0.00   0.00    0.00    0.00   1.00   1.00   1.00   1.00  11.97  19.97
 1990 018    39    38    0.0    0.0    0.0   0.00   0.00   57.2   23.0    0.0    0.0   0.00   0.00    0.00    0.00   1.00   1.00   1.00   1.00  14.12  21.14
 1990 019    40    39    0.0    0.0    0.0   0.00   0.00   61.4   23.9    0.0    0.0   0.00   0.00    0.00    0.00   1.00   1.00   1.00   1.00  16.29  22.08
 1990 020    41    40    0.0    0.0    0.0   0.00   0.00   65.8   24.8    0.0    0.0   0.00   0.00    0.00    0.00   1.00   1.00   1.00   1.00  18.61  23.04
 1990 021    42    41    0.0    0.0    0.0   0.00   0.00   70.8   26.0    0.0    0.0   0.00   0.00    0.00    0.00   1.00   1.00   1.00   1.00  21.08  24.23
 1990 022    43    42    0.0    0.0    0.0   0.00   0.00   76.2   27.9    0.9    0.0   0.00   0.00    0.00    0.00   1.00   1.00   1.00   1.00  21.48  26.18
 1990 023    44    43    0.0    0.0    0.0   0.00   0.00   80.8   29.4    1.8    0.0   0.00   0.00    0.00    0.00   1.00   1.00   1.00   1.00  21.83  27.72
 1990 024    45    44    0.0    0.0    0.0   0.00   0.00   86.0   31.1    3.0    0.0   0.00   0.00    0.00    0.00   1.00   1.00   1.00   1.00  22.27  29.42
 1990 025    46    45    0.0    0.0    0.0   0.00   0.00   90.6   32.6    4.3    0.0   0.00   0.00    0.00    0.00   1.00   1.00   1.00   1.00  22.69  30.91
 1990 026    47    46    0.0    0.0    0.0   0.00   0.00   93.2   33.4    5.1    0.0   0.00   0.00    0.00    0.00   1.00   1.00   1.00   1.00  22.84  31.77
 1990 027    48    47    0.0    0.0    0.0   0.00   0.00   94.5   33.9    5.6    0.0   0.00   0.00    0.00    0.00   1.00   1.00   1.00   1.00  22.84  32.26
 1990 028    49    48    0.0    0.0    0.0   0.00   0.00   95.7   34.2    5.9    0.0   0.00   0.00    0.00    0.00   1.00   1.00   1.00   1.00  22.78  32.59
 1990 029    50    49    0.0    0.0    0.0   0.00   0.00   96.7   34.4    6.3    0.0   0.00   0.00    0.00    0.00   1.00   1.00   1.00   1.00  22.71  32.86
 1990 030    51    50    0.0    0.0    0.0   0.00   0.00   97.5   34.6    6.6    0.0   0.00   0.00    0.00    0.00   1.00   1.00   1.00   1.00  22.63  33.11
 1990 031    52    51    0.0    0.0    0.0   0.00   0.00   98.2   34.8    6.9    0.0   0.00   0.00    0.00    0.00   1.00   1.00   1.00   1.00  22.57  33.35
 1990 032    53    52    0.0    0.0    0.0   0.00   0.00   99.0   35.0    7.2    0.0   0.00   0.00    0.00    0.00   1.00   1.00   1.00   1.00  22.54  33.60
 1990 033    54    53    0.0    0.0    0.0   0.00   0.00   99.7   35.2    7.6    0.0   0.00   0.00    0.00    0.00   1.00   1.00   1.00   1.00  22.53  33.87
 1990 034    55    54    0.0    0.0    0.0   0.00   0.00  100.4   35.3    8.1    0.0   0.00   0.00    0.00    0.00   1.00   1.00   1.00   1.00  22.55  34.16
 1990 035    56    55    0.0    0.0    0.0   0.00   0.00  100.9   35.5    8.6    0.0   0.00   0.00    0.00    0.00   1.00   1.00   1.00   1.00  22.60  34.46
 1990 036    57    56    0.0    0.0    0.0   0.00   0.00  101.0   35.6    9.1    0.0   0.00   0.00    0.00    0.00   1.00   1.00   1.00   1.00  22.66  34.77
 1990 037    58    57    0.0    0.0    0.0   0.00   0.00  107.0   36.4   11.6    0.0   0.00   0.00    0.00    0.00   1.00   1.00   1.00   1.00  23.77  36.18
 1990 038    59    58    0.0    0.0    0.0   0.00   0.00  113.0   37.1   14.2    0.0   0.00   0.00    0.00    0.00   1.00   1.00   1.00   1.00  24.85  37.52
 1990 039    60    59    0.0    0.0    0.0   0.00   0.00  119.0   37.8   16.8    0.0   0.00   0.00    0.00    0.00   1.00   1.00   1.00   1.00  25.92  38.80
 1990 040    61    60    0.0    0.0    0.0   0.00   0.00  125.0   38.6   19.6    0.0   0.00   0.00    0.00    0.00   1.00   1.00   1.00   1.00  26.96  40.01
 1990 041    62    61    0.0    0.0    0.0   0.00   0.00  131.0   39.3   22.4    0.0   0.00   0.00    0.00    0.00   1.00   1.00   1.00   1.00  28.01  41.14
 1990 042    63    62    0.0    0.0    0.0   0.00   0.00  137.0   39.9   25.4    0.0   0.00   0.00    0.00    0.00   1.00   1.00   1.00   1.00  29.11  42.20
 1990 043    64    63    0.0    0.0    0.0   0.00   0.00  141.7   40.2   27.8    0.0   0.00   0.00    0.00    0.00   1.00   1.00   1.00   1.00  29.98  42.95
 1990 044    65    64    0.0    0.0    0.0   0.00   0.00  143.6   40.3   28.9    0.0   0.00   0.00    0.00    0.00   0.92   0.61   0.38   0.38  30.17  43.15
 1990 045    66    65    0.0    0.0    0.0   0.00   0.00  144.8   40.3   29.8    0.0   0.00   0.00    0.00    0.00   0.95   0.63   0.40   0.40  30.21  43.22
 1990 046    67    66    0.0    0.0    0.0   0.00   0.00  145.9   40.3   30.6    0.0   0.00   0.00    0.00    0.00   0.99   0.66   0.44   0.44  30.21  43.23
 1990 047    68    67    0.0    0.0    0.0   0.00   0.00  146.8   40.3   31.2    0.0   0.00   0.00    0.00    0.00   1.00   0.68   0.46   0.46  30.16  43.23
 1990 048    69    68    0.0    0.0    0.0   0.00   0.00  147.5   40.3   31.7    0.0   0.00   0.00    0.00    0.00   1.00   0.68   0.47   0.47  30.04  43.23
 1990 049    70    69    0.0    0.0    0.0   0.00   0.00  147.9   40.3   32.1    0.0   0.00   0.00    0.00    0.00   1.00   0.69   0.48   0.48  29.87  43.23
 1990 050    71    70    0.0    0.0    0.0   0.00   0.00  148.1   40.3   32.5    0.0   0.00   0.00    0.00    0.00   1.00   0.69   0.48   0.48  29.69  43.23
 1990 051    72    71    0.0    0.0    0.0   0.00   0.00  148.3   40.3   32.8    0.0   0.00   0.00    0.00    0.00   1.00   0.70   0.49   0.49  29.51  43.23
 1990 052    73    72    0.0    0.0    0.0   0.00   0.00  148.5   40.3   33.2    0.0   0.00   0.00    0.00    0.00   1.00   0.73   0.53   0.53  29.34  43.23
 1990 053    74    73    0.0    0.0    0.0   0.00   0.00  148.6   40.3   33.6    0.0   0.00   0.00    0.00    0.00   1.00   0.76   0.58   0.58  29.20  43.23
 1990 054    75    74    0.0    0.0    0.0   0.00   0.00  148.7   40.3   34.1    0.0   0.00   0.00    0.00    0.00   1.00   0.81   0.66   0.66  29.08  43.23
 1990 055    76    75    0.0    0.0    0.0   0.00   0.00  148.7   40.3   34.5    0.0   0.00   0.00    0.00    0.00   1.00   0.88   0.77   0.77  28.96  43.23
 1990 056    77    76    0.0    0.0    0.0   0.00   0.00  148.7   40.3   34.9    0.0   0.00   0.00    0.00    0.00   1.00   0.96   0.92   0.92  28.84  43.23
 1990 057    78    77    0.0    0.0    0.0   0.00   0.00  148.7   40.3   35.4    0.0   0.00   0.00    0.00    0.00   1.00   1.00   1.00   1.00  28.72  43.23
 1990 058    79    78    0.0    0.0    0.0   0.00   0.00  148.7   40.3   35.7    0.0   0.00   0.00    0.00    0.00   1.00   1.00   1.00   1.00  28.61  43.23
 1990 059    80    79    0.0    0.0    0.0   0.00   0.00  148.7   40.3   36.1    0.0   0.00   0.00    0.00    0.00   1.00   1.00   1.00   1.00  28.49  43.23
 1990 060    81    80    0.0    0.0    0.0   0.00   0.00  148.7   40.3   36.5    0.0   0.00   0.00    0.00    0.00   1.00   1.00   1.00   1.00  28.38  43.23
 1990 061    82    81    0.0    0.0    0.0   0.00   0.00  148.7   40.3   36.8    0.0   0.00   0.00    0.00    0.00   1.00   1.00   1.00   1.00  28.27  43.23
 1990 062    83    82    0.0    0.0    0.0   0.00   0.00  148.7   40.3   37.1    0.0   0.00   0.00    0.00    0.00   1.00   1.00   1.00   1.00  28.17  43.23
 1990 063    84    83    0.0    0.0    0.0   0.00   0.00  148.7   40.3   37.4    0.0   0.00   0.00    0.00    0.00   1.00   1.00   1.00   1.00  28.09  43.23
 1990 064    85    84    0.0    0.0    0.0   0.00   0.00  148.7   40.3   37.6    0.0   0.00   0.00    0.00    0.00   1.00   1.00   1.00   1.00  28.03  43.23
 1990 065    86    85    0.0    0.0    0.0   0.00   0.00  148.7   40.3   37.9    0.0   0.00   0.00    0.00    0.00   1.00   1.00   1.00   1.00  27.98  43.23
 1990 066    87    86    0.0    0.0    0.0   0.00   0.00  148.7   40.3   38.0    0.0   0.00   0.00    0.00    0.00   1.00   1.00   1.00   1.00  27.96  43.23
 1990 067    88    87    0.0    0.0    0.0   0.00   0.00  148.7   40.3   38.2    0.0   0.00   0.00    0.00    0.00   1.00   1.00   1.00   1.00  27.96  43.23
 1990 068    89    88    0.0    0.0    0.0   0.00   0.00  148.7   40.3   38.3    0.0   0.00   0.00    0.00    0.00   1.00   1.00   1.00   1.00  27.99  43.23
 1990 069    90    89    0.0    0.0    0.0   0.00   0.00  148.7   40.3   38.3    0.0   0.00   0.00    0.00    0.00   1.00   1.00   1.00   1.00  28.08  43.23
 1990 070    91    90    0.0    0.0    0.0   0.00   0.00  148.7   40.3   38.3    0.0   0.00   0.00    0.00    0.00   1.00   1.00   1.00   1.00  28.19  43.23
 1990 071    92    91    0.0   15.0    0.0   0.00   0.00  148.7   38.8   30.0    0.0   0.00   0.00    0.00    0.00   1.00   1.00   1.00   1.00  24.72  41.69
 1990 072    93    92    0.0   17.8    0.0   0.00   0.00  148.7   37.5   30.0    0.0   0.00   0.00    0.00    0.00   1.00   1.00   1.00   1.00  24.82  40.24
 1990 073    94    93    0.0   20.5    0.0   0.00   0.00  148.7   36.2   30.0    0.0   0.00   0.00    0.00    0.00   1.00   1.00   1.00   1.00  24.95  38.89
 1990 074    95    94    0.0   23.5    0.0   0.00   0.00  148.7   34.7   30.0    0.0   0.00   0.00    0.00    0.00   1.00   1.00   1.00   1.00  25.11  37.39
 1990 075    96    95    0.0   26.6    0.0   0.00   0.00  148.7   33.3   29.9    0.0   0.00   0.00    0.00    0.00   1.00   1.00   1.00   1.00  25.30  35.85
 1990 076    97    96    0.0   30.1    0.0   0.00   0.00  148.7   31.7   29.8    0.0   0.00   0.00    0.00    0.00   1.00   1.00   1.00   1.00  25.55  34.15
 1990 077    98    97    0.0   33.5    0.0   0.00   0.00  148.7   30.1   29.6    0.0   0.00   0.00    0.00    0.00   1.00   1.00   1.00   1.00  25.85  32.49
 1990 078    99    98    0.0   37.2    0.0   0.00   0.00  148.7   28.4   29.4    0.0   0.00   0.00    0.00    0.00   1.00   1.00   1.00   1.00  26.20  30.71
 1990 079   100    99    0.0   41.4    0.0   0.00   0.00  148.7   26.5   29.1    0.0   0.00   0.00    0.00    0.00   1.00   1.00   1.00   1.00  26.58  28.70
 1990 080   101   100    0.0   45.2    0.0   0.00   0.00  148.7   24.8   28.8    0.0   0.00   0.00    0.00    0.00   1.00   1.00   1.00   1.00  27.01  26.89
 1990 081   102   101    0.0   49.1    0.0   0.00   0.00  148.7   23.1   28.4    0.0   0.00   0.00    0.00    0.00   1.00   1.00   1.00   1.00  27.47  25.07
 1990 082   103   102    0.0   53.0    0.0   0.00   0.00  148.7   21.5   27.9    0.0   0.00   0.00    0.00    0.00   1.00   1.00   1.00   1.00  27.93  23.34
 1990 083   104   103    0.0   56.8    0.0   0.00   0.00  148.7   19.8   27.4    0.0   0.00   0.00    0.00    0.00   1.00   1.00   1.00   1.00  28.36  21.63
 1990 084   105   104    0.0   60.5    0.0   0.00   0.00  148.7   18.3   26.9    0.0   0.00   0.00    0.00    0.00   1.00   1.00   1.00   1.00  28.77  19.99
 1990 085   106   105    0.0   63.9    0.0   0.00   0.00  148.7   16.9   26.3    0.0   0.00   0.00    0.00    0.00   1.00   1.00   1.00   1.00  29.16  18.53
 1990 086   107   106    0.0   67.9    0.0   0.00   0.00  148.7   15.4   25.5    0.0   0.00   0.00    0.00    0.00   1.00   1.00   1.00   1.00  29.53  16.90
 1990 087   108   107    0.0   71.7    0.0   0.00   0.00  148.7   14.0   24.6    0.0   0.00   0.00    0.00    0.00   1.00   1.00   1.00   1.00  29.88  15.40
 1990 088   109   108    0.0   74.7    0.0   0.00   0.00  148.7   12.9   23.8    0.0   0.00   0.00    0.00    0.00   1.00   1.00   1.00   1.00  30.20  14.23
 1990 089   110   109    0.0   78.3    0.0   0.00   0.00  148.7   11.7   22.8    0.0   0.00   0.00    0.00    0.00   1.00   1.00   1.00   1.00  30.51  12.92
 1990 090   111   110    0.0   81.2    0.0   0.00   0.00  148.7   10.8   21.8    0.0   0.00   0.00    0.00    0.00   1.00   1.00   1.00   1.00  30.80  11.93
 1990 091   112   111    0.0   84.3    0.0   0.00   0.00  148.7    9.8   20.7    0.0   0.00   0.00    0.00    0.00   1.00   1.00   1.00   1.00  31.08  10.91
 1990 092   113   112    0.0   87.6    0.0   0.00   0.00  148.7    8.8   19.4    0.0   0.00   0.00    0.00    0.00   1.00   1.00   1.00   1.00  31.33   9.84
 1990 093   114   113    0.0   91.2    0.0   0.00   0.00  148.7    8.0   18.2    0.0   0.00   0.00    0.00    0.00   1.00   1.00   1.00   1.00  30.86   8.98
 1990 094   115   114    0.0   95.0    0.0   0.00   0.00  148.7    7.4   17.3    0.0   0.00   0.00    0.00    0.00   1.00   1.00   1.00   1.00  29.51   8.33
 1990 095   116   115    0.0   98.5    0.0   0.00   0.00  148.7    7.0   16.4    0.0   0.00   0.00    0.00    0.00   1.00   1.00   1.00   1.00  28.07   7.83
 1990 096   117   116    0.0  101.4    0.0   0.00   0.00  148.7    6.6   15.6    0.0   0.00   0.00    0.00    0.00   1.00   1.00   1.00   1.00  26.95   7.41
 1990 097   118   117    0.0  103.9    0.0   0.00   0.00  154.6    6.3   14.9    0.0   0.00   0.00    0.00    0.00   1.00   1.00   1.00   1.00  31.59   7.05
 1990 098   119   118    0.0  107.7    0.0   0.00   0.00  157.2    6.0   14.1    0.0   0.00   0.00    0.00    0.00   1.00   1.00   1.00   1.00  31.48   6.73
 1990 099   120   119    0.0  111.9    0.0   0.00   0.00  160.1    5.8   13.3    0.0   0.00   0.00    0.00    0.00   1.00   1.00   1.00   1.00  31.18   6.54
 1990 100   121   120    0.0  116.0    0.0   0.00   0.00  163.1    5.6   12.7    0.0   0.00   0.00    0.00    0.00   1.00   1.00   1.00   1.00  30.85   6.36
 1990 101   122   121    0.0  120.2    0.0   0.00   0.00  166.1    5.5   12.0    0.0   0.00   0.00    0.00    0.00   1.00   1.00   1.00   1.00  30.52   6.17
 1990 102   123   122    0.0  121.1    0.0   0.00   0.00  166.2    5.3   11.5    0.0   0.00   0.00    0.00    0.00   1.00   1.00   1.00   1.00  30.22   6.01
 1990 103   124   123    0.0    NaN    0.0   0.00   0.00  166.2    NaN    NaN    0.0   0.00   0.00    0.00    0.00   1.00   1.00   1.00   1.00    NaN    NaN
 1990 104   125   124    0.0    NaN    0.0   0.00   0.00  166.2    NaN    NaN    0.0   0.00   0.00    0.00    0.00   0.03   0.02   0.00   0.00    NaN    NaN
 1990 105   126   125    0.0    NaN    0.0   0.00   0.00  166.2    NaN    NaN    0.0   0.00   0.00    0.00    0.00   0.03   0.02   0.00   0.00    NaN    NaN
 1990 106   127   126    0.0    NaN    0.0   0.00   0.00  166.2    NaN    NaN    0.0   0.00   0.00    0.00    0.00   0.03   0.02   0.00   0.00    NaN    NaN
