*Soil Inorganic Nitrogen daily output file

*DSSAT Cropping System Model Ver. 4.5.1.014 -Release      JAN 29, 2013; 15:02:32
                                                                                
*RUN   1        : Irrigated + Nitrogen      WHAPS045 UFMX8902    3              
 MODEL          : WHAPS045 - Wheat                                              
 EXPERIMENT     : UFMX8902 WH  Mexi (NWheat migration to DSSAT)                 
 DATA PATH      : C:\DSSAT45\WHEAT\                                             
 TREATMENT  3   : Irrigated + Nitrogen      WHAPS045                            
  
!                                                            NO3 (ppm) by soil depth (cm):                                           NH4 (ppm) by soil depth (cm):
!                                                            0-5    5-15   15-25   25-40   40-55   55-70   70-90  90-120 120-150     0-5    5-15   15-25   25-40   40-55   55-70   70-90  90-120 120-150
@YEAR DOY   DAS  NAPC  NI#M    NLCC   NIAD   NITD   NHTD    NI1D    NI2D    NI3D    NI4D    NI5D    NI6D    NI7D    NI8D    NI9D    NH1D    NH2D    NH3D    NH4D    NH5D    NH6D    NH7D    NH8D    NH9D    NMNC    NITC    NDNC    NIMC    AMLC   NNMNC    NUCM
 1989 344     0     0     0     0.0  106.5   46.1   60.4    2.50    2.40    2.20    2.20    2.00    1.70    1.70    1.70    1.70    3.30    3.20    3.00    3.00    2.60    2.20    2.20    2.20    2.20    0.00    0.00    0.00    0.00    0.00    0.00    0.00
 1989 345     1   150     1     0.0  180.2   51.6  128.6    6.33    3.03    2.60    2.37    2.15    1.81    1.76    1.73    1.73  107.49    3.51    3.07    2.80    2.44    2.08    2.13    2.17    2.17    3.17    5.56    0.00    0.71    0.00    2.47    0.00
 1989 346     2   150     1     0.0  217.5  134.6   82.9  126.77    3.69    2.99    2.53    2.28    1.90    1.81    1.75    1.75   40.62    3.72    3.13    2.62    2.29    1.98    2.07    2.14    2.15    9.04   88.57    0.00    6.08    0.00    2.96    0.00
 1989 347     3   150     1     0.0  237.4  166.2   71.2  170.01    4.35    3.37    2.67    2.40    1.99    1.87    1.77    1.77   24.81    3.87    3.17    2.46    2.16    1.88    2.01    2.11    2.13   14.32  120.09    0.00   10.71    0.00    3.61    0.00
 1989 348     4   150     1     0.0  248.3  185.6   62.7  195.20    5.03    3.74    2.80    2.51    2.07    1.91    1.80    1.80   13.67    3.97    3.20    2.32    2.04    1.79    1.96    2.09    2.10   19.36  139.52    0.00   15.05    0.00    4.31    0.00
 1989 349     5   150     1     0.0  254.5  196.8   57.7  208.27    5.68    4.09    2.91    2.60    2.15    1.96    1.82    1.82    7.74    4.05    3.22    2.19    1.93    1.71    1.91    2.07    2.08   24.12  150.72    0.00   19.06    0.00    5.06    0.00
 1989 350     6   150     1     0.0  258.3  203.9   54.4  215.40    6.30    4.43    3.01    2.69    2.21    2.00    1.84    1.84    4.31    4.11    3.24    2.07    1.83    1.64    1.87    2.04    2.06   28.54  157.83    0.00   22.67    0.00    5.87    0.00
 1989 351     7   150     1     0.0  260.9  208.7   52.2  219.21    6.90    4.75    3.11    2.77    2.27    2.04    1.86    1.86    2.37    4.14    3.25    1.97    1.74    1.57    1.82    2.02    2.04   32.62  162.61    0.00   25.89    0.00    6.73    0.00
 1989 352     8   150     1     0.0  262.7  212.1   50.6  221.18    7.47    5.05    3.19    2.84    2.33    2.08    1.88    1.88    1.29    4.16    3.26    1.88    1.66    1.51    1.78    2.00    2.02   36.35  166.00    0.00   28.75    0.00    7.60    0.00
 1989 353     9   150     1     0.0  264.2  214.8   49.4  222.26    8.00    5.35    3.26    2.91    2.38    2.11    1.89    1.89    0.65    4.18    3.27    1.79    1.59    1.46    1.75    1.99    2.01   39.78  168.68    0.00   31.29    0.00    8.48    0.00
 1989 354    10   150     1     0.0  265.3  217.0   48.3  222.79    8.48    5.63    3.33    2.97    2.43    2.15    1.91    1.91    0.27    4.16    3.27    1.71    1.52    1.40    1.71    1.97    1.99   42.98  170.99    0.00   33.57    0.00    9.41    0.13
 1989 355    11   150     1     0.0  266.1  218.8   47.3  223.05    8.87    5.91    3.40    3.03    2.48    2.18    1.93    1.93    0.00    4.10    3.27    1.64    1.46    1.35    1.68    1.95    1.97   45.92  172.90    0.00   35.56    0.00   10.36    0.43
 1989 356    12   150     1     0.0  266.8  220.4   46.4  222.97    9.19    6.20    3.46    3.09    2.53    2.21    1.94    1.95    0.00    4.01    3.26    1.56    1.40    1.30    1.64    1.93    1.96   48.73  174.81    0.00   37.37    0.00   11.36    0.88
 1989 357    13   150     1     0.0  267.4  221.9   45.5  222.86    9.49    6.51    3.53    3.15    2.57    2.25    1.96    1.96    0.00    3.90    3.25    1.49    1.33    1.25    1.61    1.92    1.94   51.54  176.83    0.00   39.09    0.00   12.45    1.41
 1989 358    14   150     1     0.0  267.9  223.4   44.5  222.79    9.70    6.83    3.60    3.20    2.62    2.28    1.98    1.98    0.00    3.77    3.24    1.42    1.27    1.20    1.57    1.90    1.92   54.28  178.88    0.00   40.68    0.00   13.60    2.09
 1989 359    15   150     1     0.0  268.7  225.1   43.6  222.80   10.02    7.16    3.66    3.26    2.67    2.32    2.00    2.00    0.00    3.68    3.22    1.34    1.21    1.15    1.54    1.88    1.91   56.94  180.96    0.00   42.13    0.00   14.81    2.52
 1989 360    16   150     1     0.0  269.6  226.8   42.7  222.85   10.34    7.50    3.73    3.32    2.72    2.35    2.02    2.02    0.00    3.59    3.19    1.27    1.15    1.11    1.50    1.86    1.89   59.49  183.06    0.00   43.44    0.00   16.05    2.96
 1989 361    17   150     1     0.0  270.6  228.7   41.9  222.94   10.75    7.84    3.79    3.37    2.76    2.39    2.04    2.04    0.00    3.53    3.17    1.20    1.09    1.06    1.47    1.84    1.87   61.94  185.18    0.00   44.62    0.00   17.33    3.21
 1989 362    18   150     1     0.0  271.6  230.6   41.0  223.07   11.15    8.18    3.85    3.42    2.81    2.42    2.06    2.06    0.00    3.47    3.14    1.14    1.03    1.01    1.43    1.82    1.85   64.22  187.22    0.00   45.63    0.00   18.58    3.46
 1989 363    19   150     1     0.0  272.5  232.3   40.2  223.21   11.48    8.50    3.90    3.47    2.85    2.45    2.08    2.08    0.00    3.39    3.11    1.08    0.98    0.97    1.40    1.81    1.84   66.34  189.21    0.00   46.52    0.00   19.82    3.79
 1989 364    20   150     1     0.0  273.4  233.9   39.5  223.38   11.78    8.81    3.95    3.52    2.89    2.48    2.09    2.10    0.00    3.31    3.08    1.03    0.94    0.93    1.37    1.79    1.82   68.28  191.09    0.00   47.27    0.00   21.02    4.14
 1989 365    21   150     1     0.0  274.1  235.4   38.7  223.56   12.01    9.09    3.99    3.56    2.92    2.51    2.11    2.11    0.00    3.23    3.05    0.98    0.89    0.90    1.34    1.77    1.80   70.04  192.85    0.00   47.89    0.00   22.15    4.54
 1990 001    22   150     1     0.0  274.5  236.5   38.0  223.77   12.05    9.34    4.03    3.60    2.95    2.54    2.13    2.13    0.00    3.11    3.02    0.94    0.86    0.87    1.31    1.76    1.79   71.60  194.46    0.00   48.39    0.00   23.20    5.23
 1990 002    23   150     1     0.0  274.6  237.4   37.3  223.96   11.99    9.56    4.06    3.63    2.98    2.57    2.14    2.15    0.00    2.98    2.98    0.90    0.82    0.84    1.29    1.74    1.77   73.05  196.01    0.00   48.82    0.00   24.23    6.11
 1990 003    24   150     1     0.0  274.6  238.1   36.5  224.15   11.87    9.74    4.08    3.66    3.01    2.59    2.16    2.16    0.00    2.84    2.93    0.86    0.79    0.81    1.26    1.73    1.76   74.40  197.48    0.00   49.19    0.00   25.21    7.09
 1990 004    25   150     1     0.0  274.4  238.7   35.8  224.33   11.68    9.89    4.10    3.69    3.04    2.62    2.17    2.18    0.00    2.70    2.88    0.82    0.76    0.78    1.24    1.72    1.75   75.69  198.88    0.00   49.55    0.00   26.14    8.20
 1990 005    26   150     1     0.0  274.2  239.1   35.1  224.50   11.48   10.00    4.11    3.72    3.07    2.64    2.19    2.19    0.00    2.56    2.83    0.78    0.73    0.76    1.22    1.70    1.73   76.90  200.19    0.00   49.89    0.00   27.01    9.37
 1990 006    27   150     1     0.0  273.4  239.1   34.4  224.67   11.11   10.03    4.10    3.74    3.09    2.66    2.20    2.21    0.00    2.41    2.75    0.75    0.70    0.73    1.20    1.69    1.72   78.06  201.41    0.00   50.22    0.00   27.85   10.95
 1990 007    28   150     1     0.0  272.2  238.7   33.6  224.84   10.63    9.95    4.08    3.76    3.11    2.69    2.22    2.22    0.00    2.24    2.66    0.71    0.68    0.71    1.18    1.68    1.71   79.13  202.53    0.00   50.52    0.00   28.62   12.89
 1990 008    29   150     1     0.0  271.0  238.2   32.8  225.00   10.22    9.82    4.03    3.78    3.14    2.71    2.23    2.24    0.00    2.10    2.56    0.67    0.65    0.69    1.16    1.67    1.70   80.16  203.60    0.00   50.80    0.00   29.35   14.83
 1990 009    30   150     1     0.0  269.9  237.8   32.1  225.17    9.91    9.64    3.98    3.79    3.16    2.73    2.24    2.25    0.00    1.97    2.45    0.64    0.63    0.67    1.14    1.66    1.69   81.14  204.64    0.00   51.09    0.00   30.05   16.72
 1990 010    31   150     1     0.0  268.8  237.4   31.3  225.33    9.74    9.43    3.91    3.79    3.18    2.75    2.26    2.27    0.00    1.84    2.33    0.60    0.60    0.65    1.12    1.64    1.67   82.12  205.74    0.00   51.37    0.00   30.75   18.51
 1990 011    32   150     1     0.0  267.7  237.2   30.5  225.49    9.70    9.22    3.83    3.79    3.20    2.77    2.27    2.28    0.00    1.71    2.20    0.56    0.57    0.63    1.10    1.63    1.66   83.09  206.91    0.00   51.67    0.00   31.42   20.19
 1990 012    33   150     1     0.0  266.9  237.2   29.7  225.67    9.75    9.04    3.73    3.78    3.23    2.80    2.29    2.30    0.00    1.59    2.08    0.51    0.54    0.60    1.07    1.62    1.64   84.01  208.09    0.00   51.98    0.00   32.04   21.69
 1990 013    34   150     1     0.0  266.0  237.2   28.8   22.25  102.00   16.81    3.62    3.76    3.26    2.83    2.31    2.32    0.00    1.46    1.94    0.47    0.51    0.58    1.05    1.60    1.63   84.86  209.26    0.00   52.28    0.00   32.58   23.09
 1990 014    35   150     1     0.0  260.4  232.3   28.2   18.80   88.67   24.68    4.44    3.74    3.28    2.85    2.33    2.34    0.00    1.44    1.85    0.44    0.48    0.56    1.03    1.59    1.61   88.71  210.39    0.00   55.68    0.00   33.03   29.09
 1990 015    36   150     1     0.0  255.4  227.7   27.7   19.21   83.83   25.60    4.38    3.73    3.30    2.87    2.34    2.35    0.00    1.47    1.78    0.41    0.45    0.53    1.00    1.57    1.60   93.71  211.51    0.00   59.77    0.00   33.95   35.09
 1990 016    37   150     1     0.0  250.4  223.2   27.2   20.25   80.98   24.72    4.31    3.71    3.32    2.90    2.36    2.37    0.06    1.46    1.70    0.39    0.43    0.51    0.98    1.56    1.59   98.69  212.57    0.00   63.70    0.00   34.99   41.09
 1990 017    38   150     1     0.0  245.5  218.7   26.8   19.25   78.96   23.98    4.23    3.69    3.34    2.92    2.37    2.38    0.36    1.41    1.62    0.36    0.41    0.50    0.96    1.54    1.57  103.00  213.59    0.00   66.88    0.00   36.12   47.09
 1990 018    39   150     1     0.0  240.6  214.3   26.3   18.84   76.93   23.13    4.13    3.65    3.36    2.94    2.39    2.40    0.38    1.34    1.53    0.34    0.39    0.48    0.94    1.53    1.56  106.62  214.68    0.00   69.47    0.00   37.15   53.09
 1990 019    40   150     1     0.0  236.9  211.1   25.8   18.93   75.38   22.43    4.04    3.61    3.37    2.96    2.40    2.41    0.42    1.29    1.46    0.32    0.37    0.46    0.93    1.52    1.55  109.56  215.67    0.00   71.48    0.00   38.07   57.69
 1990 020    41   150     1     0.0  233.5  208.1   25.4   19.26   73.94   21.75    3.94    3.57    3.38    2.98    2.42    2.43    0.41    1.23    1.40    0.30    0.35    0.45    0.91    1.51    1.54  111.91  216.59    0.00   73.04    0.00   38.87   61.90
 1990 021    42   150     1     0.0  229.8  204.9   24.9   19.77   72.37   20.99    3.83    3.51    3.38    2.99    2.43    2.44    0.37    1.17    1.33    0.28    0.33    0.44    0.90    1.50    1.53  113.84  217.40    0.00   74.29    0.00   39.55   66.30
 1990 022    43   150     1     0.0  225.3  201.0   24.3   20.50   70.53   20.09    3.67    3.42    3.37    3.01    2.44    2.45    0.36    1.08    1.24    0.26    0.32    0.42    0.89    1.49    1.52  115.44  218.14    0.00   75.29    0.00   40.16   71.35
 1990 023    44   150     1     0.0  220.4  196.7   23.8   21.26   68.65   19.15    3.46    3.28    3.34    3.03    2.45    2.46    0.35    0.98    1.15    0.24    0.29    0.41    0.87    1.48    1.51  116.75  218.83    0.00   76.08    0.00   40.68   76.75
 1990 024    45   150     1     0.0  216.4  193.2   23.2   21.99   67.10   18.39    3.26    3.15    3.30    3.04    2.46    2.48    0.29    0.90    1.07    0.22    0.27    0.39    0.86    1.47    1.50  117.92  219.50    0.00   76.78    0.00   41.14   81.28
 1990 025    46   150     1     0.0  211.6  189.0   22.6   22.84   65.33   17.54    3.02    2.97    3.25    3.06    2.48    2.49    0.23    0.82    0.99    0.20    0.25    0.37    0.85    1.46    1.49  119.04  220.18    0.00   77.45    0.00   41.59   86.49
 1990 026    47   150     1     0.0  207.2  185.2   22.0   23.77   63.75   16.82    2.76    2.76    3.18    3.08    2.49    2.51    0.20    0.75    0.91    0.18    0.22    0.35    0.83    1.45    1.47  120.09  220.87    0.00   78.07    0.00   42.02   91.34
 1990 027    48   150     1     0.0  204.7  183.1   21.5   24.67   62.87   16.50    2.56    2.57    3.09    3.10    2.51    2.52    0.17    0.70    0.85    0.16    0.20    0.33    0.82    1.44    1.46  120.99  221.53    0.00   78.62    0.00   42.37   94.23
 1990 028    49   150     1     0.0  203.3  182.2   21.0   25.46   62.43   16.41    2.43    2.42    2.99    3.12    2.52    2.54    0.16    0.65    0.79    0.15    0.18    0.31    0.80    1.43    1.45  121.75  222.16    0.00   79.11    0.00   42.64   95.90
 1990 029    50   150     1     0.0  202.3  181.7   20.6   26.16   62.18   16.41    2.35    2.28    2.87    3.14    2.54    2.55    0.15    0.59    0.74    0.14    0.17    0.29    0.78    1.41    1.44  122.40  222.77    0.00   79.53    0.00   42.86   97.09
 1990 030    51   150     1     0.0  201.5  181.4   20.1   26.78   61.99   16.43    2.31    2.17    2.74    3.15    2.55    2.57    0.14    0.54    0.68    0.13    0.15    0.26    0.76    1.40    1.42  122.95  223.34    0.00   79.90    0.00   43.05   98.08
 1990 031    52   150     1     0.0  200.7  181.1   19.7   27.36   61.82   16.46    2.28    2.07    2.59    3.15    2.57    2.58    0.14    0.49    0.63    0.13    0.14    0.24    0.75    1.39    1.41  123.42  223.85    0.00   80.21    0.00   43.21   98.99
 1990 032    53   150     1     0.0  200.0  180.7   19.3   27.70   61.75   16.50    2.27    2.00    2.42    3.13    2.58    2.60    0.14    0.45    0.59    0.12    0.13    0.22    0.72    1.38    1.40  123.84  224.31    0.00   80.48    0.00   43.35   99.88
 1990 033    54   150     1     0.0  199.1  180.2   18.9   28.07   61.66   16.52    2.26    1.93    2.25    3.09    2.60    2.61    0.14    0.42    0.55    0.12    0.12    0.20    0.70    1.37    1.39  124.20  224.70    0.00   80.71    0.00   43.49  100.86
 1990 034    55   150     1     0.0  198.2  179.6   18.5   28.49   61.54   16.54    2.25    1.87    2.07    3.02    2.61    2.63    0.13    0.39    0.52    0.12    0.12    0.18    0.67    1.36    1.38  124.50  225.06    0.00   80.90    0.00   43.61  101.93
 1990 035    56   150     1     0.0  197.1  179.0   18.2   28.93   61.40   16.56    2.24    1.81    1.90    2.91    2.62    2.64    0.13    0.37    0.50    0.12    0.11    0.16    0.63    1.35    1.37  124.76  225.38    0.00   81.05    0.00   43.72  103.09
 1990 036    57   150     1     0.0  196.0  178.2   17.8   29.38   61.25   16.57    2.24    1.78    1.75    2.76    2.63    2.65    0.12    0.35    0.47    0.11    0.11    0.14    0.59    1.34    1.36  124.99  225.67    0.00   81.17    0.00   43.82  104.31
 1990 037    58   150     1     0.0  194.8  177.4   17.5    4.53   55.83   31.29    2.23    1.76    1.63    2.55    2.65    2.66    0.11    0.34    0.45    0.11    0.10    0.13    0.53    1.33    1.35  125.18  225.95    0.00   81.27    0.00   43.91  105.57
 1990 038    59   150     1     0.0  189.1  171.6   17.5    3.46   45.77   36.49    2.23    1.76    1.61    2.50    2.66    2.67    0.00    0.53    0.45    0.11    0.10    0.13    0.51    1.33    1.34  127.32  226.22    0.00   83.20    0.00   44.13  111.57
 1990 039    60   150     1     0.0  183.8  166.1   17.7    3.06   42.54   35.96    2.23    1.76    1.59    2.47    2.67    2.68    0.23    0.69    0.47    0.11    0.10    0.13    0.50    1.32    1.33  130.65  226.54    0.00   85.76    0.00   44.89  117.57
 1990 040    61   200     2     0.0  199.5  160.9   38.7    2.88   39.34   35.46    2.23    1.75    1.57    2.43    2.68    2.70   31.84    0.75    0.48    0.11    0.10    0.12    0.48    1.31    1.32  134.00  227.00    0.00   88.10    0.00   45.91  123.57
 1990 041    62   200     2     0.0  206.7  173.8   32.9   28.30   36.78   35.11    2.23    1.75    1.56    2.40    2.69    2.71   23.27    0.80    0.49    0.11    0.10    0.12    0.47    1.30    1.31  137.04  244.49    0.00   90.19    0.00   46.85  129.57
 1990 042    63   200     2     0.0  208.7  182.1   26.6   46.59   34.38   34.77    2.23    1.75    1.54    2.35    2.70    2.72   14.06    0.81    0.49    0.11    0.10    0.11    0.45    1.29    1.30  139.69  257.85    0.00   91.96    0.00   47.73  135.57
 1990 043    64   200     2     0.0  207.1  185.0   22.1   57.64   31.64   34.37    2.23    1.75    1.51    2.26    2.72    2.73    7.74    0.75    0.47    0.11    0.10    0.11    0.42    1.28    1.29  141.70  266.06    0.00   93.16    0.00   48.54  141.57
 1990 044    65   200     2     0.0  204.6  184.5   20.1   62.89   29.44   34.05    2.23    1.76    1.47    2.11    2.73    2.75    5.27    0.68    0.45    0.11    0.10    0.10    0.39    1.27    1.28  143.05  269.99    0.00   93.92    0.00   49.14  146.29
 1990 045    66   200     2     0.0  204.1  185.3   18.8   66.24   28.77   33.97    2.24    1.76    1.45    1.97    2.74    2.76    3.78    0.64    0.42    0.10    0.09    0.10    0.35    1.26    1.27  143.96  272.55    0.00   94.46    0.00   49.50  148.17
 1990 046    67   200     2     0.0  203.9  186.1   17.9   68.57   28.42   33.93    2.24    1.76    1.44    1.85    2.76    2.77    2.83    0.61    0.40    0.10    0.09    0.10    0.33    1.25    1.26  144.72  274.42    0.00   94.96    0.00   49.76  149.43
 1990 047    68   200     2     0.0  203.7  186.4   17.3   70.19   28.12   33.90    2.24    1.76    1.43    1.73    2.77    2.79    2.34    0.58    0.38    0.10    0.09    0.10    0.30    1.24    1.25  145.42  275.77    0.00   95.41    0.00   50.01  150.54
 1990 048    69   200     2     0.0  203.4  186.6   16.8   71.41   27.90   33.88    2.24    1.76    1.42    1.63    2.78    2.80    2.04    0.56    0.36    0.10    0.09    0.09    0.28    1.23    1.25  146.03  276.81    0.00   95.81    0.00   50.22  151.47
 1990 049    70   200     2     0.0  203.3  186.9   16.5   72.38   27.80   33.87    2.24    1.76    1.42    1.53    2.78    2.81    1.82    0.53    0.34    0.10    0.09    0.09    0.26    1.22    1.24  146.55  277.65    0.00   96.16    0.00   50.39  152.14
 1990 050    71   200     2     0.0  203.2  187.2   16.1   73.22   27.77   33.87    2.24    1.76    1.41    1.46    2.78    2.82    1.60    0.51    0.32    0.10    0.09    0.09    0.24    1.21    1.23  147.00  278.37    0.00   96.47    0.00   50.53  152.65
 1990 051    72   200     2     0.0  203.1  187.5   15.7   73.98   27.78   33.87    2.24    1.76    1.41    1.40    2.76    2.83    1.35    0.48    0.31    0.10    0.09    0.09    0.23    1.19    1.22  147.42  279.04    0.00   96.77    0.00   50.65  153.10
 1990 052    73   200     2     0.0  203.0  187.7   15.3   74.65   27.79   33.88    2.24    1.76    1.41    1.36    2.74    2.84    1.12    0.45    0.30    0.10    0.09    0.09    0.22    1.17    1.21  147.84  279.64    0.00   97.07    0.00   50.77  153.56
 1990 053    74   200     2     0.0  202.7  187.9   14.8   75.24   27.81   33.88    2.24    1.76    1.41    1.32    2.70    2.85    0.90    0.42    0.28    0.10    0.09    0.09    0.21    1.14    1.21  148.27  280.20    0.00   97.37    0.00   50.90  154.08
 1990 054    75   200     2     0.0  202.4  188.0   14.4   75.76   27.82   33.88    2.24    1.76    1.41    1.30    2.64    2.86    0.73    0.40    0.27    0.10    0.09    0.09    0.21    1.10    1.20  148.70  280.70    0.00   97.67    0.00   51.02  154.65
 1990 055    76   200     2     0.0  202.0  188.0   14.0   76.23   27.84   33.89    2.24    1.76    1.41    1.29    2.57    2.87    0.59    0.38    0.25    0.10    0.09    0.09    0.20    1.06    1.19  149.12  281.16    0.00   97.97    0.00   51.15  155.30
 1990 056    77   200     2     0.0  201.5  188.0   13.6   76.65   27.85   33.89    2.24    1.76    1.41    1.28    2.50    2.89    0.47    0.35    0.24    0.09    0.09    0.09    0.20    1.02    1.18  149.56  281.59    0.00   98.27    0.00   51.28  155.93
 1990 057    78   200     2     0.0  201.1  187.9   13.2   77.02   27.86   33.89    2.25    1.77    1.41    1.28    2.43    2.90    0.38    0.33    0.22    0.09    0.08    0.09    0.20    0.98    1.17  149.99  282.00    0.00   98.57    0.00   51.42  156.52
 1990 058    79   200     2     0.0  200.8  187.9   12.9   77.35   27.87   33.89    2.25    1.77    1.41    1.28    2.36    2.91    0.32    0.31    0.21    0.09    0.08    0.08    0.19    0.94    1.16  150.42  282.37    0.00   98.86    0.00   51.56  157.10
 1990 059    80   200     2     0.0  200.4  187.8   12.5   77.65   27.88   33.89    2.25    1.77    1.41    1.28    2.30    2.93    0.28    0.29    0.20    0.09    0.08    0.08    0.19    0.90    1.15  150.83  282.72    0.00   99.13    0.00   51.70  157.66
 1990 060    81   250     3     0.0  208.0  187.8   20.2   77.93   27.88   33.89    2.25    1.77    1.42    1.28    2.23    2.94   12.27    0.27    0.19    0.09    0.08    0.08    0.19    0.87    1.14  151.22  283.04    0.00   99.37    0.00   51.84  158.20
 1990 061    82   250     3     0.0  214.1  192.1   21.9   84.90   27.87   33.88    2.25    1.77    1.42    1.27    2.17    2.95   15.29    0.26    0.18    0.09    0.08    0.08    0.19    0.83    1.13  151.57  287.78    0.00   99.59    0.00   51.98  158.73
 1990 062    83   250     3     0.0  218.9  197.4   21.5   93.31   27.86   33.87    2.25    1.77    1.42    1.27    2.11    2.97   15.02    0.25    0.17    0.09    0.08    0.08    0.18    0.80    1.12  151.88  293.45    0.00   99.77    0.00   52.11  159.24
 1990 063    84   250     3     0.0  222.8  202.6   20.2  101.58   27.84   33.85    2.25    1.77    1.42    1.27    2.05    2.98   13.41    0.23    0.16    0.09    0.08    0.08    0.18    0.77    1.11  152.16  299.02    0.00   99.92    0.00   52.24  159.74
 1990 064    85   250     3     0.0  225.9  207.2   18.7  108.91   27.82   33.83    2.25    1.77    1.42    1.27    1.99    2.99   11.57    0.22    0.15    0.09    0.08    0.08    0.18    0.74    1.10  152.40  303.97    0.00  100.04    0.00   52.36  160.22
 1990 065    86   250     3     0.0  228.5  211.0   17.5  114.98   27.80   33.82    2.25    1.77    1.42    1.27    1.93    3.01   10.07    0.21    0.14    0.08    0.08    0.08    0.18    0.71    1.09  152.63  308.08    0.00  100.16    0.00   52.46  160.69
 1990 066    87   250     3     0.0  230.5  214.0   16.5  119.97   27.77   33.80    2.25    1.77    1.42    1.26    1.88    3.02    8.92    0.21    0.14    0.08    0.08    0.08    0.17    0.68    1.08  152.85  311.44    0.00  100.28    0.00   52.57  161.14
 1990 067    88   250     3     0.0  232.2  216.5   15.7  124.17   27.73   33.76    2.25    1.77    1.42    1.26    1.82    3.03    8.04    0.20    0.13    0.08    0.08    0.08    0.17    0.66    1.07  153.07  314.24    0.00  100.40    0.00   52.67  161.59
 1990 068    89   250     3     0.0  233.6  218.5   15.1  127.72   27.67   33.72    2.25    1.77    1.42    1.26    1.77    3.04    7.51    0.20    0.13    0.08    0.07    0.08    0.17    0.63    1.06  153.28  316.56    0.00  100.51    0.00   52.77  162.01
 1990 069    90   250     3     0.0  234.9  220.2   14.7  130.78   27.61   33.68    2.25    1.77    1.42    1.26    1.72    3.05    7.15    0.19    0.12    0.08    0.07    0.08    0.17    0.61    1.05  153.49  318.54    0.00  100.62    0.00   52.87  162.43
 1990 070    91   250     3     0.0  236.0  221.6   14.3  133.46   27.56   33.65    2.25    1.77    1.42    1.25    1.67    3.07    6.84    0.19    0.12    0.08    0.07    0.07    0.17    0.58    1.05  153.69  320.31    0.00  100.73    0.00   52.96  162.84
 1990 071    92   250     3     0.0  236.9  222.9   14.0  135.93   27.49   33.60    2.25    1.77    1.42    1.25    1.62    3.08    6.58    0.19    0.12    0.08    0.07    0.07    0.16    0.56    1.04  153.89  321.88    0.00  100.83    0.00   53.05  163.24
 1990 072    93   250     3     0.0  237.7  224.0   13.7  138.16   27.42   33.55    2.25    1.77    1.42    1.25    1.57    3.08    6.35    0.18    0.11    0.08    0.07    0.07    0.16    0.54    1.03  154.08  323.28    0.00  100.93    0.00   53.14  163.65
 1990 073    94   250     3     0.0  238.3  224.9   13.4  140.15   27.35   33.50    2.25    1.77    1.42    1.24    1.52    3.08    6.18    0.18    0.11    0.08    0.07    0.07    0.16    0.52    1.02  154.26  324.50    0.00  101.03    0.00   53.23  164.07
 1990 074    95   250     3     0.0  238.8  225.7   13.1  141.94   27.28   33.45    2.25    1.77    1.42    1.24    1.48    3.08    6.03    0.18    0.11    0.08    0.07    0.07    0.16    0.50    1.01  154.44  325.60    0.00  101.12    0.00   53.32  164.50
 1990 075    96   250     3     0.0  239.2  226.4   12.8  143.65   27.21   33.40    2.25    1.77    1.42    1.24    1.43    3.08    5.81    0.18    0.11    0.08    0.07    0.07    0.16    0.49    0.99  154.62  326.63    0.00  101.22    0.00   53.40  164.96
 1990 076    97   250     3     0.0  239.5  227.0   12.4  145.31   27.14   33.35    2.25    1.77    1.42    1.23    1.39    3.07    5.52    0.18    0.10    0.08    0.07    0.07    0.15    0.47    0.98  154.80  327.64    0.00  101.32    0.00   53.49  165.44
 1990 077    98   250     3     0.0  239.6  227.6   12.0  146.90   27.07   33.30    2.25    1.77    1.42    1.23    1.35    3.05    5.17    0.18    0.10    0.08    0.07    0.07    0.15    0.45    0.96  155.00  328.61    0.00  101.42    0.00   53.58  165.96
 1990 078    99   250     3     0.0  239.7  228.1   11.6  148.46   27.00   33.25    2.25    1.77    1.42    1.23    1.31    3.02    4.76    0.18    0.10    0.07    0.07    0.07    0.15    0.44    0.94  155.20  329.55    0.00  101.53    0.00   53.67  166.52
 1990 079   100   250     3     0.0  239.6  228.6   11.0  149.99   26.94   33.20    2.25    1.77    1.42    1.22    1.27    2.99    4.28    0.18    0.10    0.07    0.07    0.07    0.15    0.42    0.92  155.42  330.49    0.00  101.65    0.00   53.77  167.13
 1990 080   101   250     3     0.0  239.5  229.0   10.5  151.47   26.87   33.16    2.25    1.77    1.42    1.22    1.24    2.95    3.77    0.17    0.10    0.07    0.07    0.07    0.15    0.41    0.90  155.65  331.41    0.00  101.77    0.00   53.88  167.79
 1990 081   102   250     3     0.0  242.0  229.3   12.7  152.86   26.81   33.11    2.25    1.77    1.42    1.22    1.20    2.90    7.45    0.17    0.09    0.07    0.07    0.07    0.15    0.39    0.87  155.90  332.27    0.00  101.91    0.00   53.99  168.48
 1990 082   103   250     3     0.0  241.4  230.3   11.1  155.30   26.75   33.06    2.25    1.78    1.42    1.22    1.17    2.84    5.38    0.17    0.09    0.07    0.06    0.07    0.14    0.38    0.84  156.16  333.82    0.00  102.05    0.00   54.11  169.23
 1990 083   104   250     3     0.0  240.8  230.9    9.9  157.15   26.69   33.02    2.25    1.78    1.42    1.21    1.13    2.78    3.90    0.17    0.09    0.07    0.06    0.07    0.14    0.36    0.81  156.42  335.00    0.00  102.19    0.00   54.23  169.96
 1990 084   105   250     3     0.0  240.2  231.2    8.9  158.56   26.63   32.97    2.25    1.78    1.42    1.21    1.10    2.72    2.86    0.17    0.09    0.07    0.06    0.06    0.14    0.35    0.78  156.69  335.87    0.00  102.33    0.00   54.36  170.68
 1990 085   106   250     3     0.0  239.6  231.4    8.3  159.63   26.57   32.92    2.25    1.78    1.42    1.21    1.07    2.66    2.15    0.17    0.09    0.07    0.06    0.06    0.14    0.34    0.76  156.96  336.51    0.00  102.47    0.00   54.48  171.38
 1990 086   107   250     3     0.0  239.0  231.3    7.7  160.49   26.51   32.88    2.25    1.78    1.42    1.21    1.04    2.61    1.67    0.17    0.09    0.07    0.06    0.06    0.14    0.33    0.73  157.21  337.00    0.00  102.61    0.00   54.60  172.07
 1990 087   108   250     3     0.0  238.5  231.2    7.3  161.20   26.44   32.83    2.25    1.78    1.42    1.20    1.01    2.55    1.33    0.17    0.08    0.07    0.06    0.06    0.13    0.32    0.71  157.46  337.39    0.00  102.74    0.00   54.72  172.73
 1990 088   109   250     3     0.0  238.0  231.0    7.0  161.81   26.38   32.78    2.25    1.78    1.42    1.20    0.98    2.50    1.08    0.17    0.08    0.06    0.06    0.06    0.13    0.31    0.68  157.71  337.71    0.00  102.87    0.00   54.84  173.38
 1990 089   110   250     3     0.0  237.4  230.8    6.7  162.35   26.32   32.73    2.25    1.78    1.42    1.20    0.95    2.44    0.91    0.17    0.08    0.06    0.06    0.06    0.13    0.30    0.66  157.94  337.97    0.00  102.99    0.00   54.95  174.02
 1990 090   111   250     3     0.0  236.9  230.5    6.4  162.84   26.25   32.68    2.25    1.78    1.42    1.19    0.92    2.39    0.78    0.17    0.08    0.06    0.06    0.06    0.13    0.29    0.64  158.17  338.19    0.00  103.11    0.00   55.06  174.63
 1990 091   112   250     3     0.0  236.4  230.2    6.2  163.29   26.19   32.63    2.25    1.78    1.42    1.19    0.89    2.34    0.68    0.17    0.08    0.06    0.06    0.06    0.13    0.28    0.62  158.38  338.38    0.00  103.22    0.00   55.16  175.24
 1990 092   113   250     3     0.0  235.9  229.9    6.0  163.72   26.12   32.58    2.25    1.78    1.42    1.19    0.87    2.29    0.61    0.17    0.08    0.06    0.06    0.06    0.13    0.27    0.60  158.58  338.54    0.00  103.33    0.00   55.26  175.82
 1990 093   114   250     3     0.0  235.5  229.6    5.8  164.13   26.05   32.53    2.25    1.78    1.42    1.18    0.84    2.24    0.56    0.17    0.08    0.06    0.06    0.06    0.12    0.26    0.58  158.78  338.69    0.00  103.43    0.00   55.35  176.39
 1990 094   115   250     3     0.0  235.0  229.3    5.7  164.53   25.99   32.48    2.25    1.78    1.42    1.18    0.81    2.19    0.50    0.17    0.08    0.06    0.06    0.06    0.12    0.25    0.56  158.97  338.84    0.00  103.53    0.00   55.44  176.95
 1990 095   116   250     3     0.0  234.6  229.1    5.5  164.93   25.92   32.43    2.24    1.78    1.42    1.18    0.79    2.14    0.46    0.17    0.08    0.06    0.06    0.06    0.12    0.25    0.54  159.18  338.98    0.00  103.64    0.00   55.54  177.50
 1990 096   117   250     3     0.0  234.1  228.8    5.3  165.32   25.86   32.39    2.24    1.78    1.42    1.18    0.77    2.09    0.41    0.17    0.08    0.06    0.05    0.06    0.12    0.24    0.53  159.40  339.13    0.00  103.76    0.00   55.64  178.02
 1990 097   118   250     3     0.0  233.7  228.5    5.2   12.51   86.78   45.16    2.24    1.78    1.42    1.17    0.74    2.04    0.38    0.17    0.08    0.06    0.05    0.06    0.12    0.23    0.51  159.62  339.28    0.00  103.88    0.00   55.75  178.54
 1990 098   119   250     3     0.0  228.1  222.6    5.5   11.08   75.02   51.78    2.24    1.78    1.42    1.17    0.74    2.03    0.00    0.61    0.09    0.06    0.05    0.06    0.12    0.23    0.50  162.62  339.40    0.00  106.52    0.00   56.11  184.54
 1990 099   120   250     3     0.0  226.9  220.3    6.6   14.30   73.41   50.52    2.22    1.75    1.39    1.15    0.74    2.03    1.06    0.90    0.15    0.06    0.05    0.06    0.12    0.23    0.50  167.33  339.66    0.00  109.72    0.00   57.61  187.22
 1990 100   121   250     3     0.0  225.8  218.8    7.0   20.18   71.57   48.94    2.19    1.73    1.35    1.13    0.74    2.03    1.28    1.02    0.19    0.06    0.05    0.05    0.12    0.23    0.49  171.97  340.98    0.00  112.52    0.00   59.45  190.19
 1990 101   122   250     3     0.0  224.4  217.6    6.8   22.40   69.74   48.80    2.19    1.73    1.35    1.13    0.74    2.02    1.08    1.02    0.21    0.06    0.05    0.05    0.11    0.23    0.49  175.80  342.64    0.00  114.61    0.00   61.19  193.30
 1990 102   123   250     3     0.0  222.6  216.1    6.5   24.64   67.78   48.66    2.19    1.73    1.35    1.13    0.73    2.00    0.80    0.94    0.22    0.06    0.05    0.05    0.11    0.23    0.48  178.69  344.17    0.00  116.09    0.00   62.60  196.51
 1990 103   124   250     3     0.0  223.5  217.2    6.3   26.57   67.65   48.61    2.18    1.73    1.35    1.13    0.73    2.01    0.75    0.88    0.22    0.05    0.05    0.05    0.11    0.23    0.48  180.75  345.36    0.00  117.09    0.00   63.66  196.63
 1990 104   125   250     3     0.0  224.3  218.3    6.0   28.33   67.63   48.56    2.18    1.73    1.35    1.13    0.74    2.02    0.40    0.82    0.21    0.05    0.05    0.05    0.11    0.23    0.47  182.42  346.49    0.00  117.96    0.00   64.46  196.63
 1990 105   126   250     3     0.0  225.1  219.2    5.9   29.64   67.62   48.52    2.18    1.73    1.35    1.13    0.74    2.02    0.41    0.78    0.21    0.05    0.05    0.05    0.11    0.23    0.47  183.95  347.33    0.00  118.75    0.00   65.21  196.63
 1990 106   127   250     3     0.0  225.8  220.0    5.8   30.95   67.60   48.47    2.18    1.73    1.35    1.13    0.75    2.03    0.35    0.73    0.21    0.05    0.05    0.05    0.11    0.23    0.46  185.38  348.17    0.00  119.46    0.00   65.92  196.63
