*WATER BALANCE OUTPUT FILE

*DSSAT Cropping System Model Ver. 4.5.1.014 -Release      JAN 29, 2013; 15:02:32
                                                                                
*RUN   1        : Irrigated + Nitrogen      WHAPS045 UFMX8902    3              
 MODEL          : WHAPS045 - Wheat                                              
 EXPERIMENT     : UFMX8902 WH  Mexi (NWheat migration to DSSAT)                 
 DATA PATH      : C:\DSSAT45\WHEAT\                                             
 TREATMENT  3   : Irrigated + Nitrogen      WHAPS045                            
  
@YEAR DOY   DAS    SWTD    FWTD    SNTD   MWTD   IRRD   PRED  RESAD  MEVAP   DRND   ROFD   FROD   ESAD   EPAD   EFAD   TDFD    WBAL   CUMWBAL        TOTS    TOTU    TOTX    TOTT    TOTL     Drain1,   Evap1,   RootUK1
 1989 344     0  316.50    0.00    0.00   0.00   0.00   0.00   0.00   0.00   0.00   0.00   0.00   0.00   0.00   0.00   0.00    0.00      0.00        0.00    0.00    0.00    0.00    0.00
 1989 345     1  315.51    0.00    0.00   0.00   0.00   0.00   0.00   0.00   0.00   0.00   0.00   0.99   0.00   0.00   0.00    0.00      0.00        0.00   -0.99    0.00    0.00    0.00        0.00  -16.48    0.00
 1989 346     2  314.82    0.00    0.00   3.80   0.00   0.00   3.80   0.00   0.00   0.00   0.00   0.69   0.00   0.00   0.00    0.00      0.00        0.00   -0.69    0.00    0.00    0.00        0.00  -11.29    0.00
 1989 347     3  314.82    0.00    0.00   1.86   0.00   0.00   0.00   1.94   0.00   0.00   0.00   0.00   0.00   0.00   0.00    0.00      0.00        0.00    0.00    0.00    0.00    0.00        0.00    0.00    0.00
 1989 348     4  314.82    0.00    0.00   0.51   0.00   0.00   0.00   1.35   0.00   0.00   0.00   0.00   0.00   0.00   0.00    0.00      0.00        0.00    0.00    0.00    0.00    0.00        0.00    0.00    0.00
 1989 349     5  314.44    0.00    0.00   0.14   0.00   0.00   0.00   0.37   0.00   0.00   0.00   0.39   0.00   0.00   0.00    0.00      0.00        0.00   -0.39    0.00    0.00    0.00        0.00   -6.29    0.00
 1989 350     6  314.00    0.00    0.00   0.04   0.00   0.00   0.00   0.10   0.00   0.00   0.00   0.43   0.00   0.00   0.00    0.00      0.00        0.00   -0.43    0.00    0.00    0.00        0.00   -6.98    0.00
 1989 351     7  313.73    0.00    0.00   0.01   0.00   0.00   0.00   0.03   0.00   0.00   0.00   0.28   0.00   0.00   0.00    0.00      0.00        0.00   -0.28    0.00    0.00    0.00        0.00   -4.41    0.00
 1989 352     8  313.22    0.00    0.00   0.00   0.00   0.00   0.00   0.01   0.00   0.00   0.00   0.51   0.00   0.00   0.00    0.00      0.00        0.00   -0.51    0.00    0.00    0.00        0.00   -8.06    0.00
 1989 353     9  312.58    0.00    0.00   0.00   0.00   0.00   0.00   0.00   0.00   0.00   0.00   0.64   0.00   0.00   0.00    0.00      0.00        0.00   -0.64    0.00    0.00    0.00        0.00  -10.07    0.00
 1989 354    10  311.86    0.00    0.00   0.00   0.00   0.00   0.00   0.00   0.00   0.00   0.00   0.69   0.02   0.00   0.00    0.00      0.00        0.00   -0.69   -0.02    0.00    0.00        0.00  -10.65   -0.25
 1989 355    11  311.17    0.00    0.00   0.00   0.00   0.00   0.00   0.00   0.00   0.00   0.00   0.66   0.04   0.00   0.00    0.00      0.00        0.00   -0.66   -0.04    0.00    0.00        0.00   -9.91   -0.27
 1989 356    12  310.51    0.00    0.00   0.00   0.00   0.00   0.00   0.00   0.00   0.00   0.00   0.61   0.05   0.00   0.00    0.00      0.00        0.00   -0.61   -0.05    0.00    0.00        0.00   -9.01   -0.32
 1989 357    13  309.88    0.00    0.00   0.00   0.00   0.00   0.00   0.00   0.00   0.00   0.00   0.57   0.06   0.00   0.00    0.00      0.00        0.00   -0.57   -0.06    0.00    0.00        0.00   -8.18   -0.36
 1989 358    14  309.27    0.00    0.00   0.00   0.00   0.00   0.00   0.00   0.00   0.00   0.00   0.53   0.08   0.00   0.00    0.00      0.00        0.00   -0.53   -0.08    0.00    0.00        0.00   -7.43   -0.35
 1989 359    15  308.68    0.00    0.00   0.00   0.00   0.00   0.00   0.00   0.00   0.00   0.00   0.49   0.10   0.00   0.00    0.00      0.00        0.00   -0.49   -0.10    0.00    0.00        0.00   -6.74   -0.36
 1989 360    16  308.10    0.00    0.00   0.00   0.00   0.00   0.00   0.00   0.00   0.00   0.00   0.46   0.12   0.00   0.00    0.00      0.00        0.00   -0.46   -0.12    0.00    0.00        0.00   -6.12   -0.29
 1989 361    17  307.53    0.00    0.00   0.00   0.00   0.00   0.00   0.00   0.00   0.00   0.00   0.43   0.13   0.00   0.00    0.00      0.00        0.00   -0.43   -0.13    0.00    0.00        0.00   -5.55   -0.17
 1989 362    18  307.04    0.00    0.00   0.00   0.00   0.00   0.00   0.00   0.00   0.00   0.00   0.41   0.08   0.00   0.00    0.00      0.00        0.00   -0.41   -0.08    0.00    0.00        0.00   -5.05   -0.01
 1989 363    19  306.53    0.00    0.00   0.00   0.00   0.00   0.00   0.00   0.00   0.00   0.00   0.38   0.13   0.00   0.00    0.00      0.00        0.00   -0.38   -0.13    0.00    0.00        0.00   -4.60    0.00
 1989 364    20  306.05    0.00    0.00   0.00   0.00   0.00   0.00   0.00   0.00   0.00   0.00   0.36   0.11   0.00   0.00    0.00      0.00        0.00   -0.36   -0.11    0.00    0.00        0.00   -4.19    0.00
 1989 365    21  305.61    0.00    0.00   0.00   0.00   0.00   0.00   0.00   0.00   0.00   0.00   0.34   0.10   0.00   0.00    0.00      0.00        0.00   -0.34   -0.10    0.00    0.00        0.00   -3.82    0.00
 1990 001    22  305.05    0.00    0.00   0.00   0.00   0.00   0.00   0.00   0.00   0.00   0.00   0.32   0.23   0.00   0.00    0.00      0.00        0.00   -0.32   -0.23    0.00    0.00        0.00   -3.49    0.00
 1990 002    23  304.36    0.00    0.00   0.00   0.00   0.00   0.00   0.00   0.00   0.00   0.00   0.31   0.39   0.00   0.00    0.00      0.00        0.00   -0.31   -0.39    0.00    0.00        0.00   -3.18    0.00
 1990 003    24  303.71    0.00    0.00   0.00   0.00   0.00   0.00   0.00   0.00   0.00   0.00   0.29   0.36   0.00   0.00    0.00      0.00        0.00   -0.29   -0.36    0.00    0.00        0.00   -2.90    0.00
 1990 004    25  303.04    0.00    0.00   0.00   0.00   0.00   0.00   0.00   0.00   0.00   0.00   0.28   0.39   0.00   0.00    0.00      0.00        0.00   -0.28   -0.39    0.00    0.00        0.00   -2.64    0.00
 1990 005    26  302.58    0.00    0.00   0.00   0.00   0.00   0.00   0.00   0.00   0.00   0.00   0.26   0.20   0.00   0.00    0.00      0.00        0.00   -0.26   -0.20    0.00    0.00        0.00   -2.41    0.00
 1990 006    27  301.78    0.00    0.00   0.00   0.00   0.00   0.00   0.00   0.00   0.00   0.00   0.25   0.56   0.00   0.00    0.00      0.00        0.00   -0.25   -0.56    0.00    0.00        0.00   -2.20    0.00
 1990 007    28  300.85    0.00    0.00   0.00   0.00   0.00   0.00   0.00   0.00   0.00   0.00   0.24   0.69   0.00   0.00    0.00      0.00        0.00   -0.24   -0.69    0.00    0.00        0.00   -2.00    0.00
 1990 008    29  299.47    0.00    0.00   0.00   0.00   0.00   0.00   0.00   0.00   0.00   0.00   0.22   1.16   0.00   0.00    0.00      0.00        0.00   -0.22   -1.16    0.00    0.00        0.00   -1.83    0.00
 1990 009    30  297.57    0.00    0.00   0.00   0.00   0.00   0.00   0.00   0.00   0.00   0.00   0.21   1.68   0.00   0.00    0.00      0.00        0.00   -0.21   -1.68    0.00    0.00        0.00   -1.66    0.00
 1990 010    31  295.35    0.00    0.00   0.00   0.00   0.00   0.00   0.00   0.00   0.00   0.00   0.20   2.03   0.00   0.00    0.00      0.00        0.00   -0.20   -2.03    0.00    0.00        0.00   -1.52    0.00
 1990 011    32  292.64    0.00    0.00   0.00   0.00   0.00   0.00   0.00   0.00   0.00   0.00   0.18   2.53   0.00   0.00    0.00     -0.01        0.00   -0.18   -2.53    0.00    0.00        0.00   -1.38    0.00
 1990 012    33  290.08    0.00    0.00   0.00   0.00   0.00   0.00   0.00   0.00   0.00   0.00   0.17   2.39   0.00   0.00    0.00     -0.01        0.00   -0.17   -2.39    0.00    0.00        0.00   -1.26    0.00
 1990 013    34  317.34    0.00    0.00   0.00  30.00   0.00   0.00   0.00   0.00   0.00   0.00   0.54   2.20   0.00   0.00    0.00     -0.01       30.00   -0.54   -2.20    0.00    0.00      257.82   -8.76    0.00
 1990 014    35  314.20    0.00    0.00   0.00   0.00   0.00   0.00   0.00   0.00   0.00   0.00   0.47   2.67   0.00   0.00    0.00     -0.01        0.00   -0.47   -2.67    0.00    0.00      -37.70   -2.30  -14.87
 1990 015    36  311.13    0.00    0.00   0.00   0.00   0.00   0.00   0.00   0.00   0.00   0.00   0.46   2.62   0.00   0.00    0.00     -0.01        0.00   -0.46   -2.62    0.00    0.00      -10.26   -2.03  -13.39
 1990 016    37  307.72    0.00    0.00   0.00   0.00   0.00   0.00   0.00   0.00   0.00   0.00   0.37   3.04   0.00   0.00    0.00     -0.01        0.00   -0.37   -3.04    0.00    0.00        0.00   -6.18  -14.53
 1990 017    38  305.24    0.00    0.00   0.00   0.00   0.00   0.00   0.00   0.00   0.00   0.00   0.38   2.11   0.00   0.00    0.00     -0.01        0.00   -0.38   -2.11    0.00    0.00        0.00   -6.21   -9.48
 1990 018    39  302.24    0.00    0.00   0.00   0.00   0.00   0.00   0.00   0.00   0.00   0.00   0.33   2.67   0.00   0.00    0.00     -0.01        0.00   -0.33   -2.67    0.00    0.00        0.00   -5.38  -11.96
 1990 019    40  299.73    0.00    0.00   0.00   0.00   0.00   0.00   0.00   0.00   0.00   0.00   0.29   2.22   0.00   0.00    0.00     -0.01        0.00   -0.29   -2.22    0.00    0.00        0.00   -4.66  -10.15
 1990 020    41  297.60    0.00    0.00   0.00   0.00   0.00   0.00   0.00   0.00   0.00   0.00   0.32   1.82   0.00   0.00    0.00     -0.01        0.00   -0.32   -1.82    0.00    0.00        0.00   -5.00   -7.02
 1990 021    42  294.59    0.00    0.00   0.00   0.00   0.00   0.00   0.00   0.00   0.00   0.00   0.36   2.65   0.00   0.00    0.00     -0.01        0.00   -0.36   -2.65    0.00    0.00        0.00   -5.58   -8.40
 1990 022    43  289.98    0.00    0.00   0.00   0.00   0.00   0.00   0.00   0.00   0.00   0.00   0.28   4.32   0.00   0.00    0.00     -0.01        0.00   -0.28   -4.32    0.00    0.00        0.00   -4.27   -9.99
 1990 023    44  287.30    0.00    0.00   0.00   0.00   0.00   0.00   0.00   0.00   0.00   0.00   0.22   2.46   0.00   0.00    0.00     -0.01        0.00   -0.22   -2.46    0.00    0.00        0.00   -3.30   -3.31
 1990 024    45  284.91    0.00    0.00   0.00   0.00   0.00   0.00   0.00   0.00   0.00   0.00   0.25   2.14   0.00   0.00    0.00     -0.01        0.00   -0.25   -2.14    0.00    0.00        0.00   -3.71   -1.82
 1990 025    46  280.76    0.00    0.00   0.00   0.00   0.00   0.00   0.00   0.00   0.00   0.00   0.26   3.89   0.00   0.00    0.00     -0.01        0.00   -0.26   -3.89    0.00    0.00        0.00   -3.78   -1.46
 1990 026    47  275.05    0.00    0.00   0.00   0.00   0.00   0.00   0.00   0.00   0.00   0.00   0.23   5.48   0.00   0.00    0.00     -0.01        0.00   -0.23   -5.48    0.00    0.00        0.00   -3.36    0.00
 1990 027    48  268.65    0.00    0.00   0.00   0.00   0.00   0.00   0.00   0.00   0.00   0.00   0.19   6.20   0.00   0.00    0.00     -0.01        0.00   -0.19   -6.20    0.00    0.00        0.00   -2.78    0.00
 1990 028    49  263.10    0.00    0.00   0.00   0.00   0.00   0.00   0.00   0.00   0.00   0.00   0.16   5.39   0.00   0.00    0.00     -0.01        0.00   -0.16   -5.39    0.00    0.00        0.00   -2.39    0.00
 1990 029    50  257.86    0.00    0.00   0.00   0.00   0.00   0.00   0.00   0.00   0.00   0.00   0.14   5.10   0.00   0.00    0.00     -0.01        0.00   -0.14   -5.10    0.00    0.00        0.00   -2.15    0.00
 1990 030    51  252.43    0.00    0.00   0.00   0.00   0.00   0.00   0.00   0.00   0.00   0.00   0.13   5.29   0.00   0.00    0.00     -0.01        0.00   -0.13   -5.29    0.00    0.00        0.00   -1.97    0.00
 1990 031    52  246.62    0.00    0.00   0.00   0.00   0.00   0.00   0.00   0.00   0.00   0.00   0.07   5.73   0.00   0.00    0.00     -0.01        0.00   -0.07   -5.73    0.00    0.00        0.00   -1.07    0.00
 1990 032    53  244.95    0.00    0.00   0.00   0.00   0.00   0.00   0.00   0.00   0.00   0.00   0.08   1.60   0.00   0.00    0.00     -0.01        0.00   -0.08   -1.60    0.00    0.00        0.00   -1.21    0.00
 1990 033    54  243.04    0.00    0.00   0.00   0.00   0.00   0.00   0.00   0.00   0.00   0.00   0.09   1.82   0.00   0.00    0.00     -0.01        0.00   -0.09   -1.82    0.00    0.00        0.00   -1.41    0.00
 1990 034    55  239.72    0.00    0.00   0.00   0.00   0.00   0.00   0.00   0.00   0.00   0.00   0.10   3.21   0.00   0.00    0.00     -0.01        0.00   -0.10   -3.21    0.00    0.00        0.00   -1.50    0.00
 1990 035    56  234.91    0.00    0.00   0.00   0.00   0.00   0.00   0.00   0.00   0.00   0.00   0.10   4.71   0.00   0.00    0.00     -0.01        0.00   -0.10   -4.71    0.00    0.00        0.00   -1.51    0.00
 1990 036    57  228.92    0.00    0.00   0.00   0.00   0.00   0.00   0.00   0.00   0.00   0.00   0.10   5.90   0.00   0.00    0.00      0.00        0.00   -0.10   -5.90    0.00    0.00        0.00   -1.43    0.00
 1990 037    58  252.71    0.00    0.00   0.00  30.00   0.00   0.00   0.00   0.00   0.00   0.00   0.09   6.11   0.00   0.00    0.00     -0.01       30.00   -0.09   -6.11    0.00    0.00      236.27   -1.62    0.00
 1990 038    59  246.48    0.00    0.00   0.00   0.00   0.00   0.00   0.00   0.00   0.00   0.00   0.07   6.16   0.00   0.00    0.00      0.00        0.00   -0.07   -6.16    0.00    0.00      -41.26   -0.46  -30.99
 1990 039    60  241.82    0.00    0.00   0.00   0.00   0.00   0.00   0.00   0.00   0.00   0.00   0.05   4.61   0.00   0.00    0.00      0.00        0.00   -0.05   -4.61    0.00    0.00       -4.91   -0.30  -22.30
 1990 040    61  238.98    0.00    0.00   0.00   0.00   0.00   0.00   0.00   0.00   0.00   0.00   0.06   2.78   0.00   0.00    0.00      0.00        0.00   -0.06   -2.78    0.00    0.00        0.00   -0.99  -13.87
 1990 041    62  234.75    0.00    0.00   0.00   0.00   0.00   0.00   0.00   0.00   0.00   0.00   0.07   4.17   0.00   0.00    0.00      0.00        0.00   -0.07   -4.17    0.00    0.00        0.00   -1.13  -21.64
 1990 042    63  227.26    0.00    0.00   0.00   0.00   0.00   0.00   0.00   0.00   0.00   0.00   0.06   7.42   0.00   0.00    0.00      0.00        0.00   -0.06   -7.42    0.00    0.00        0.00   -1.07  -35.82
 1990 043    64  219.04    0.00    0.00   0.00   0.00   0.00   0.00   0.00   0.00   0.00   0.00   0.06   8.17   0.00   0.00    0.00      0.00        0.00   -0.06   -8.17    0.00    0.00        0.00   -0.97  -25.49
 1990 044    65  210.90    0.00    0.00   0.00   0.00   0.00   0.00   0.00   0.00   0.00   0.00   0.04   8.09   0.00   0.00    0.00      0.00        0.00   -0.04   -8.09    0.00    0.00        0.00   -0.70   -9.95
 1990 045    66  207.32    0.00    0.00   0.00   0.00   0.00   0.00   0.00   0.00   0.00   0.00   0.03   3.55   0.00   0.00    0.00      0.00        0.00   -0.03   -3.55    0.00    0.00        0.00   -0.46   -0.34
 1990 046    67  206.25    0.00    0.00   0.00   0.00   0.00   0.00   0.00   0.00   0.00   0.00   0.04   1.04   0.00   0.00    0.00      0.00        0.00   -0.04   -1.04    0.00    0.00        0.00   -0.57    0.00
 1990 047    68  204.69    0.00    0.00   0.00   0.00   0.00   0.00   0.00   0.00   0.00   0.00   0.05   1.51   0.00   0.00    0.00      0.00        0.00   -0.05   -1.51    0.00    0.00        0.00   -0.79    0.00
 1990 048    69  201.37    0.00    0.00   0.00   0.00   0.00   0.00   0.00   0.00   0.00   0.00   0.06   3.27   0.00   0.00    0.00      0.00        0.00   -0.06   -3.27    0.00    0.00        0.00   -0.89    0.00
 1990 049    70  197.45    0.00    0.00   0.00   0.00   0.00   0.00   0.00   0.00   0.00   0.00   0.06   3.85   0.00   0.00    0.00      0.00        0.00   -0.06   -3.85    0.00    0.00        0.00   -0.95    0.00
 1990 050    71  193.66    0.00    0.00   0.00   0.00   0.00   0.00   0.00   0.00   0.00   0.00   0.06   3.73   0.00   0.00    0.00     -0.01        0.00   -0.06   -3.73    0.00    0.00        0.00   -1.02    0.00
 1990 051    72  189.91    0.00    0.00   0.00   0.00   0.00   0.00   0.00   0.00   0.00   0.00   0.06   3.69   0.00   0.00    0.00     -0.01        0.00   -0.06   -3.69    0.00    0.00        0.00   -0.96    0.00
 1990 052    73  187.23    0.00    0.00   0.00   0.00   0.00   0.00   0.00   0.00   0.00   0.00   0.07   2.62   0.00   0.00    0.00     -0.01        0.00   -0.07   -2.62    0.00    0.00        0.00   -1.09    0.00
 1990 053    74  183.98    0.00    0.00   0.00   0.00   0.00   0.00   0.00   0.00   0.00   0.00   0.07   3.17   0.00   0.00    0.00     -0.01        0.00   -0.07   -3.17    0.00    0.00        0.00   -1.12    0.00
 1990 054    75  181.06    0.00    0.00   0.00   0.00   0.00   0.00   0.00   0.00   0.00   0.00   0.08   2.85   0.00   0.00    0.00     -0.01        0.00   -0.08   -2.85    0.00    0.00        0.00   -1.31    0.00
 1990 055    76  177.48    0.00    0.00   0.00   0.00   0.00   0.00   0.00   0.00   0.00   0.00   0.08   3.50   0.00   0.00    0.00      0.00        0.00   -0.08   -3.50    0.00    0.00        0.00   -1.31    0.00
 1990 056    77  174.55    0.00    0.00   0.00   0.00   0.00   0.00   0.00   0.00   0.00   0.00   0.08   2.85   0.00   0.00    0.00      0.00        0.00   -0.08   -2.85    0.00    0.00        0.00   -1.27    0.00
 1990 057    78  174.46    0.00    0.00   0.00   0.00   0.00   0.00   0.00   0.00   0.00   0.00   0.08   0.01   0.00   0.00    0.00     -0.01        0.00   -0.08   -0.01    0.00    0.00        0.00   -1.25    0.00
 1990 058    79  174.36    0.00    0.00   0.00   0.00   0.00   0.00   0.00   0.00   0.00   0.00   0.08   0.02   0.00   0.00    0.00      0.00        0.00   -0.08   -0.02    0.00    0.00        0.00   -1.24    0.00
 1990 059    80  174.25    0.00    0.00   0.00   0.00   0.00   0.00   0.00   0.00   0.00   0.00   0.08   0.02   0.00   0.00    0.00      0.00        0.00   -0.08   -0.02    0.00    0.00        0.00   -1.32    0.00
 1990 060    81  174.12    0.00    0.00   0.00   0.00   0.00   0.00   0.00   0.00   0.00   0.00   0.11   0.02   0.00   0.00    0.00      0.00        0.00   -0.11   -0.02    0.00    0.00        0.00   -1.73    0.00
 1990 061    82  173.98    0.00    0.00   0.00   0.00   0.00   0.00   0.00   0.00   0.00   0.00   0.12   0.02   0.00   0.00    0.00      0.00        0.00   -0.12   -0.02    0.00    0.00        0.00   -1.80    0.00
 1990 062    83  173.84    0.00    0.00   0.00   0.00   0.00   0.00   0.00   0.00   0.00   0.00   0.13   0.02   0.00   0.00    0.00      0.00        0.00   -0.13   -0.02    0.00    0.00        0.00   -1.93    0.00
 1990 063    84  173.70    0.00    0.00   0.00   0.00   0.00   0.00   0.00   0.00   0.00   0.00   0.12   0.02   0.00   0.00    0.00     -0.01        0.00   -0.12   -0.02    0.00    0.00        0.00   -1.80    0.00
 1990 064    85  173.57    0.00    0.00   0.00   0.00   0.00   0.00   0.00   0.00   0.00   0.00   0.11   0.02   0.00   0.00    0.00     -0.01        0.00   -0.11   -0.02    0.00    0.00        0.00   -1.59    0.00
 1990 065    86  173.44    0.00    0.00   0.00   0.00   0.00   0.00   0.00   0.00   0.00   0.00   0.11   0.02   0.00   0.00    0.00     -0.01        0.00   -0.11   -0.02    0.00    0.00        0.00   -1.70    0.00
 1990 066    87  173.27    0.00    0.00   0.00   0.00   0.00   0.00   0.00   0.00   0.00   0.00   0.15   0.02   0.00   0.00    0.00     -0.01        0.00   -0.15   -0.02    0.00    0.00        0.00   -2.14    0.00
 1990 067    88  173.09    0.00    0.00   0.00   0.00   0.00   0.00   0.00   0.00   0.00   0.00   0.16   0.02   0.00   0.00    0.00     -0.01        0.00   -0.16   -0.02    0.00    0.00        0.00   -2.30    0.00
 1990 068    89  172.92    0.00    0.00   0.00   0.00   0.00   0.00   0.00   0.00   0.00   0.00   0.15   0.02   0.00   0.00    0.00     -0.01        0.00   -0.15   -0.02    0.00    0.00        0.00   -2.07    0.00
 1990 069    90  172.79    0.00    0.00   0.00   0.00   0.00   0.00   0.00   0.00   0.00   0.00   0.11   0.02   0.00   0.00    0.00     -0.01        0.00   -0.11   -0.02    0.00    0.00        0.00   -1.57    0.00
 1990 070    91  172.62    0.00    0.00   0.00   0.00   0.00   0.00   0.00   0.00   0.00   0.00   0.15   0.02   0.00   0.00    0.00     -0.01        0.00   -0.15   -0.02    0.00    0.00        0.00   -2.02    0.00
 1990 071    92  172.46    0.00    0.00   0.00   0.00   0.00   0.00   0.00   0.00   0.00   0.00   0.14   0.02   0.00   0.00    0.00     -0.01        0.00   -0.14   -0.02    0.00    0.00        0.00   -1.84    0.00
 1990 072    93  172.30    0.00    0.00   0.00   0.00   0.00   0.00   0.00   0.00   0.00   0.00   0.13   0.02   0.00   0.00    0.00      0.00        0.00   -0.13   -0.02    0.00    0.00        0.00   -1.68    0.00
 1990 073    94  172.16    0.00    0.00   0.00   0.00   0.00   0.00   0.00   0.00   0.00   0.00   0.12   0.02   0.00   0.00    0.00      0.00        0.00   -0.12   -0.02    0.00    0.00        0.00   -1.53    0.00
 1990 074    95  172.01    0.00    0.00   0.00   0.00   0.00   0.00   0.00   0.00   0.00   0.00   0.12   0.02   0.00   0.00    0.00      0.00        0.00   -0.12   -0.02    0.00    0.00        0.00   -1.39    0.00
 1990 075    96  171.88    0.00    0.00   0.00   0.00   0.00   0.00   0.00   0.00   0.00   0.00   0.11   0.02   0.00   0.00    0.00      0.00        0.00   -0.11   -0.02    0.00    0.00        0.00   -1.27    0.00
 1990 076    97  171.75    0.00    0.00   0.00   0.00   0.00   0.00   0.00   0.00   0.00   0.00   0.11   0.03   0.00   0.00    0.00      0.00        0.00   -0.11   -0.03    0.00    0.00        0.00   -1.16    0.00
 1990 077    98  171.62    0.00    0.00   0.00   0.00   0.00   0.00   0.00   0.00   0.00   0.00   0.10   0.03   0.00   0.00    0.00      0.00        0.00   -0.10   -0.03    0.00    0.00        0.00   -1.06    0.00
 1990 078    99  171.50    0.00    0.00   0.00   0.00   0.00   0.00   0.00   0.00   0.00   0.00   0.09   0.03   0.00   0.00    0.00      0.00        0.00   -0.09   -0.03    0.00    0.00        0.00   -0.96    0.00
 1990 079   100  171.38    0.00    0.00   0.00   0.00   0.00   0.00   0.00   0.00   0.00   0.00   0.09   0.03   0.00   0.00    0.00      0.00        0.00   -0.09   -0.03    0.00    0.00        0.00   -0.88    0.00
 1990 080   101  171.26    0.00    0.00   0.00   0.00   0.00   0.00   0.00   0.00   0.00   0.00   0.09   0.03   0.00   0.00    0.00      0.00        0.00   -0.09   -0.03    0.00    0.00        0.00   -0.80    0.00
 1990 081   102  171.14    0.00    0.00   0.00   0.00   0.00   0.00   0.00   0.00   0.00   0.00   0.08   0.03   0.00   0.00    0.00      0.00        0.00   -0.08   -0.03    0.00    0.00        0.00   -0.73    0.00
 1990 082   103  171.03    0.00    0.00   0.00   0.00   0.00   0.00   0.00   0.00   0.00   0.00   0.08   0.03   0.00   0.00    0.00      0.00        0.00   -0.08   -0.03    0.00    0.00        0.00   -0.67    0.00
 1990 083   104  170.92    0.00    0.00   0.00   0.00   0.00   0.00   0.00   0.00   0.00   0.00   0.08   0.04   0.00   0.00    0.00      0.00        0.00   -0.08   -0.04    0.00    0.00        0.00   -0.61    0.00
 1990 084   105  170.81    0.00    0.00   0.00   0.00   0.00   0.00   0.00   0.00   0.00   0.00   0.07   0.04   0.00   0.00    0.00      0.00        0.00   -0.07   -0.04    0.00    0.00        0.00   -0.55    0.00
 1990 085   106  170.71    0.00    0.00   0.00   0.00   0.00   0.00   0.00   0.00   0.00   0.00   0.07   0.04   0.00   0.00    0.00      0.00        0.00   -0.07   -0.04    0.00    0.00        0.00   -0.50    0.00
 1990 086   107  170.60    0.00    0.00   0.00   0.00   0.00   0.00   0.00   0.00   0.00   0.00   0.07   0.04   0.00   0.00    0.00      0.00        0.00   -0.07   -0.04    0.00    0.00        0.00   -0.46    0.00
 1990 087   108  170.50    0.00    0.00   0.00   0.00   0.00   0.00   0.00   0.00   0.00   0.00   0.07   0.04   0.00   0.00    0.00      0.00        0.00   -0.07   -0.04    0.00    0.00        0.00   -0.42    0.00
 1990 088   109  170.40    0.00    0.00   0.00   0.00   0.00   0.00   0.00   0.00   0.00   0.00   0.06   0.04   0.00   0.00    0.00      0.00        0.00   -0.06   -0.04    0.00    0.00        0.00   -0.38    0.00
 1990 089   110  170.30    0.00    0.00   0.00   0.00   0.00   0.00   0.00   0.00   0.00   0.00   0.06   0.04   0.00   0.00    0.00      0.00        0.00   -0.06   -0.04    0.00    0.00        0.00   -0.35    0.00
 1990 090   111  170.21    0.00    0.00   0.00   0.00   0.00   0.00   0.00   0.00   0.00   0.00   0.06   0.03   0.00   0.00    0.00      0.00        0.00   -0.06   -0.03    0.00    0.00        0.00   -0.32    0.00
 1990 091   112  170.12    0.00    0.00   0.00   0.00   0.00   0.00   0.00   0.00   0.00   0.00   0.06   0.03   0.00   0.00    0.00      0.00        0.00   -0.06   -0.03    0.00    0.00        0.00   -0.29    0.00
 1990 092   113  170.02    0.00    0.00   0.00   0.00   0.00   0.00   0.00   0.00   0.00   0.00   0.06   0.03   0.00   0.00    0.00     -0.01        0.00   -0.06   -0.03    0.00    0.00        0.00   -0.26    0.00
 1990 093   114  169.93    0.00    0.00   0.00   0.00   0.00   0.00   0.00   0.00   0.00   0.00   0.06   0.03   0.00   0.00    0.00     -0.01        0.00   -0.06   -0.03    0.00    0.00        0.00   -0.24    0.00
 1990 094   115  169.84    0.00    0.00   0.00   0.00   0.00   0.00   0.00   0.00   0.00   0.00   0.06   0.03   0.00   0.00    0.00     -0.01        0.00   -0.06   -0.03    0.00    0.00        0.00   -0.22    0.00
 1990 095   116  169.75    0.00    0.00   0.00   0.00   0.00   0.00   0.00   0.00   0.00   0.00   0.05   0.03   0.00   0.00    0.00     -0.01        0.00   -0.05   -0.03    0.00    0.00        0.00   -0.20    0.00
 1990 096   117  169.67    0.00    0.00   0.00   0.00   0.00   0.00   0.00   0.00   0.00   0.00   0.05   0.03   0.00   0.00    0.00     -0.01        0.00   -0.05   -0.03    0.00    0.00        0.00   -0.18    0.00
 1990 097   118  198.97    0.00    0.00   0.00  30.00   0.00   0.00   0.00   0.00   0.00   0.00   0.66   0.03   0.00   0.00    0.00     -0.01       30.00   -0.66   -0.03    0.00    0.00      268.97  -11.58    0.00
 1990 098   119  195.17    0.00    0.00   0.00   0.00   0.00   0.00   0.00   0.00   0.00   0.00   0.87   2.93   0.00   0.00    0.00     -0.01        0.00   -0.87   -2.93    0.00    0.00      -36.28   -6.32  -16.89
 1990 099   120  190.24    0.00    0.00   0.00   0.00   0.00   0.00   0.00   0.00   0.00   0.00   1.00   3.92   0.00   0.00    0.00     -0.01        0.00   -1.00   -3.92    0.00    0.00       -6.54   -6.73  -21.76
 1990 100   121  185.74    0.00    0.00   0.00   0.00   0.00   0.00   0.00   0.00   0.00   0.00   0.83   3.67   0.00   0.00    0.00     -0.01        0.00   -0.83   -3.67    0.00    0.00        0.00  -14.54  -22.18
 1990 101   122  181.63    0.00    0.00   0.00   0.00   0.00   0.00   0.00   0.00   0.00   0.00   0.66   3.44   0.00   0.00    0.00     -0.01        0.00   -0.66   -3.44    0.00    0.00        0.00  -11.30  -22.81
 1990 102   123  177.98    0.00    0.00   0.00   0.00   0.00   0.00   0.00   0.00   0.00   0.00   0.50   3.15   0.00   0.00    0.00     -0.01        0.00   -0.50   -3.15    0.00    0.00        0.00   -8.29  -17.26
 1990 103   124  177.10    0.00    0.00   0.00   0.00   0.00   0.00   0.00   0.00   0.00   0.00   0.38   0.50   0.00   0.00    0.00     -0.01        0.00   -0.38   -0.50    0.00    0.00        0.00   -6.03   -1.32
 1990 104   125  176.74    0.00    0.00   0.00   0.00   0.00   0.00   0.00   0.00   0.00   0.00   0.35   0.02   0.00   0.00    0.00     -0.01        0.00   -0.35   -0.02    0.00    0.00        0.00   -5.39   -0.02
 1990 105   126  176.40    0.00    0.00   0.00   0.00   0.00   0.00   0.00   0.00   0.00   0.00   0.32   0.02   0.00   0.00    0.00     -0.01        0.00   -0.32   -0.02    0.00    0.00        0.00   -4.91    0.00
 1990 106   127  176.09    0.00    0.00   0.00   0.00   0.00   0.00   0.00   0.00   0.00   0.00   0.30   0.02   0.00   0.00    0.00     -0.01        0.00   -0.30   -0.02    0.00    0.00        0.00   -4.47    0.00

!     WATER BALANCE PARAMETERS
!     ========================                 --mm--

!     Soil H20 (start) on Year/day 1989/345    316.50
!     Soil H20 (final) on Year/day 1990/106    176.09
!     Effective Irrigation                      90.00
!     Precipitation                              0.00
!     Water added with new mulch                 3.80
!     Drainage                                   0.00
!     Tiledrain flow                             0.00
!     Runoff                                     0.00
!     Mulch evaporation                          3.80
!     Soil Evaporation                          29.63
!     Transpiration                            200.79
!     Potential ET                             472.37

!     Initial mulch water content                0.00
!     Final mulch water content                  0.00

!     Final Balance                            -0.006

