*SOIL DYNAMICS OUTPUT FILE

*DSSAT Cropping System Model Ver. 4.5.1.014 -Release      JAN 29, 2013; 15:02:32
                                                                                
*RUN   1        : Irrigated + Nitrogen      WHAPS045 UFMX8902    3              
 MODEL          : WHAPS045 - Wheat                                              
 EXPERIMENT     : UFMX8902 WH  Mexi (NWheat migration to DSSAT)                 
 DATA PATH      : C:\DSSAT45\WHEAT\                                             
 TREATMENT  3   : Irrigated + Nitrogen      WHAPS045                            
  

@YEAR DOY   DAS   CRAIN  SOLCOV   SUMKE    ROCN   TOTAW  KECHG1  KECHG2  KECHG3  KECHG4  DLAYR1  DLAYR2  DLAYR3  DLAYR4     BD1     BD2     BD3     BD4   SWCN1   SWCN2   SWCN3   SWCN4    SAT1    SAT2    SAT3    SAT4    DUL1    DUL2    DUL3    DUL4     LL1     LL2     LL3     LL4
 1989 345     1     0.0   0.000   0.000    60.0  252.20   0.000   0.000   0.000   0.000    5.00   10.00   10.00   15.00   1.330   1.330   1.620   1.660   0.590   0.590   0.590   0.590    0.36    0.36    0.38    0.32 0.21100 0.21100 0.21100 0.21100 0.08100 0.08100 0.09500 0.03500
 1989 346     2     0.0   0.865   0.000    60.0  252.20   0.000   0.000   0.000   0.000    5.00   10.00   10.00   15.00   1.330   1.330   1.620   1.660   0.590   0.590   0.590   0.590    0.36    0.36    0.38    0.32 0.21100 0.21100 0.21100 0.21100 0.08100 0.08100 0.09500 0.03500
 1989 347     3     0.0   0.859   0.000    60.0  252.20   0.000   0.000   0.000   0.000    5.00   10.00   10.00   15.00   1.330   1.330   1.620   1.660   0.590   0.590   0.590   0.590    0.36    0.36    0.38    0.32 0.21100 0.21100 0.21100 0.21100 0.08100 0.08100 0.09500 0.03500
 1989 348     4     0.0   0.855   0.000    60.0  252.20   0.000   0.000   0.000   0.000    5.00   10.00   10.00   15.00   1.330   1.330   1.620   1.660   0.590   0.590   0.590   0.590    0.36    0.36    0.38    0.32 0.21100 0.21100 0.21100 0.21100 0.08100 0.08100 0.09500 0.03500
 1989 349     5     0.0   0.850   0.000    60.0  252.20   0.000   0.000   0.000   0.000    5.00   10.00   10.00   15.00   1.330   1.330   1.620   1.660   0.590   0.590   0.590   0.590    0.36    0.36    0.38    0.32 0.21100 0.21100 0.21100 0.21100 0.08100 0.08100 0.09500 0.03500
 1989 350     6     0.0   0.846   0.000    60.0  252.20   0.000   0.000   0.000   0.000    5.00   10.00   10.00   15.00   1.330   1.330   1.620   1.660   0.590   0.590   0.590   0.590    0.36    0.36    0.38    0.32 0.21100 0.21100 0.21100 0.21100 0.08100 0.08100 0.09500 0.03500
 1989 351     7     0.0   0.842   0.000    60.0  252.20   0.000   0.000   0.000   0.000    5.00   10.00   10.00   15.00   1.330   1.330   1.620   1.660   0.590   0.590   0.590   0.590    0.36    0.36    0.38    0.32 0.21100 0.21100 0.21100 0.21100 0.08100 0.08100 0.09500 0.03500
 1989 352     8     0.0   0.839   0.000    60.0  252.20   0.000   0.000   0.000   0.000    5.00   10.00   10.00   15.00   1.330   1.330   1.620   1.660   0.590   0.590   0.590   0.590    0.36    0.36    0.38    0.32 0.21100 0.21100 0.21100 0.21100 0.08100 0.08100 0.09500 0.03500
 1989 353     9     0.0   0.835   0.000    60.0  252.20   0.000   0.000   0.000   0.000    5.00   10.00   10.00   15.00   1.330   1.330   1.620   1.660   0.590   0.590   0.590   0.590    0.36    0.36    0.38    0.32 0.21100 0.21100 0.21100 0.21100 0.08100 0.08100 0.09500 0.03500
 1989 354    10     0.0   0.834   0.000    60.0  252.20   0.000   0.000   0.000   0.000    5.00   10.00   10.00   15.00   1.330   1.330   1.620   1.660   0.590   0.590   0.590   0.590    0.36    0.36    0.38    0.32 0.21100 0.21100 0.21100 0.21100 0.08100 0.08100 0.09500 0.03500
 1989 355    11     0.0   0.832   0.000    60.0  252.20   0.000   0.000   0.000   0.000    5.00   10.00   10.00   15.00   1.330   1.330   1.620   1.660   0.590   0.590   0.590   0.590    0.36    0.36    0.38    0.32 0.21100 0.21100 0.21100 0.21100 0.08100 0.08100 0.09500 0.03500
 1989 356    12     0.0   0.830   0.000    60.0  252.20   0.000   0.000   0.000   0.000    5.00   10.00   10.00   15.00   1.330   1.330   1.620   1.660   0.590   0.590   0.590   0.590    0.36    0.36    0.38    0.32 0.21100 0.21100 0.21100 0.21100 0.08100 0.08100 0.09500 0.03500
 1989 357    13     0.0   0.829   0.000    60.0  252.20   0.000   0.000   0.000   0.000    5.00   10.00   10.00   15.00   1.330   1.330   1.620   1.660   0.590   0.590   0.590   0.590    0.36    0.36    0.38    0.32 0.21100 0.21100 0.21100 0.21100 0.08100 0.08100 0.09500 0.03500
 1989 358    14     0.0   0.828   0.000    60.0  252.20   0.000   0.000   0.000   0.000    5.00   10.00   10.00   15.00   1.330   1.330   1.620   1.660   0.590   0.590   0.590   0.590    0.36    0.36    0.38    0.32 0.21100 0.21100 0.21100 0.21100 0.08100 0.08100 0.09500 0.03500
 1989 359    15     0.0   0.827   0.000    60.0  252.20   0.000   0.000   0.000   0.000    5.00   10.00   10.00   15.00   1.330   1.330   1.620   1.660   0.590   0.590   0.590   0.590    0.36    0.36    0.38    0.32 0.21100 0.21100 0.21100 0.21100 0.08100 0.08100 0.09500 0.03500
 1989 360    16     0.0   0.827   0.000    60.0  252.20   0.000   0.000   0.000   0.000    5.00   10.00   10.00   15.00   1.330   1.330   1.620   1.660   0.590   0.590   0.590   0.590    0.36    0.36    0.38    0.32 0.21100 0.21100 0.21100 0.21100 0.08100 0.08100 0.09500 0.03500
 1989 361    17     0.0   0.827   0.000    60.0  252.20   0.000   0.000   0.000   0.000    5.00   10.00   10.00   15.00   1.330   1.330   1.620   1.660   0.590   0.590   0.590   0.590    0.36    0.36    0.38    0.32 0.21100 0.21100 0.21100 0.21100 0.08100 0.08100 0.09500 0.03500
 1989 362    18     0.0   0.827   0.000    60.0  252.20   0.000   0.000   0.000   0.000    5.00   10.00   10.00   15.00   1.330   1.330   1.620   1.660   0.590   0.590   0.590   0.590    0.36    0.36    0.38    0.32 0.21100 0.21100 0.21100 0.21100 0.08100 0.08100 0.09500 0.03500
 1989 363    19     0.0   0.827   0.000    60.0  252.20   0.000   0.000   0.000   0.000    5.00   10.00   10.00   15.00   1.330   1.330   1.620   1.660   0.590   0.590   0.590   0.590    0.36    0.36    0.38    0.32 0.21100 0.21100 0.21100 0.21100 0.08100 0.08100 0.09500 0.03500
 1989 364    20     0.0   0.828   0.000    60.0  252.20   0.000   0.000   0.000   0.000    5.00   10.00   10.00   15.00   1.330   1.330   1.620   1.660   0.590   0.590   0.590   0.590    0.36    0.36    0.38    0.32 0.21100 0.21100 0.21100 0.21100 0.08100 0.08100 0.09500 0.03500
 1989 365    21     0.0   0.830   0.000    60.0  252.20   0.000   0.000   0.000   0.000    5.00   10.00   10.00   15.00   1.330   1.330   1.620   1.660   0.590   0.590   0.590   0.590    0.36    0.36    0.38    0.32 0.21100 0.21100 0.21100 0.21100 0.08100 0.08100 0.09500 0.03500
 1990 001    22     0.0   0.832   0.000    60.0  252.20   0.000   0.000   0.000   0.000    5.00   10.00   10.00   15.00   1.330   1.330   1.620   1.660   0.590   0.590   0.590   0.590    0.36    0.36    0.38    0.32 0.21100 0.21100 0.21100 0.21100 0.08100 0.08100 0.09500 0.03500
 1990 002    23     0.0   0.835   0.000    60.0  252.20   0.000   0.000   0.000   0.000    5.00   10.00   10.00   15.00   1.330   1.330   1.620   1.660   0.590   0.590   0.590   0.590    0.36    0.36    0.38    0.32 0.21100 0.21100 0.21100 0.21100 0.08100 0.08100 0.09500 0.03500
 1990 003    24     0.0   0.839   0.000    60.0  252.20   0.000   0.000   0.000   0.000    5.00   10.00   10.00   15.00   1.330   1.330   1.620   1.660   0.590   0.590   0.590   0.590    0.36    0.36    0.38    0.32 0.21100 0.21100 0.21100 0.21100 0.08100 0.08100 0.09500 0.03500
 1990 004    25     0.0   0.843   0.000    60.0  252.20   0.000   0.000   0.000   0.000    5.00   10.00   10.00   15.00   1.330   1.330   1.620   1.660   0.590   0.590   0.590   0.590    0.36    0.36    0.38    0.32 0.21100 0.21100 0.21100 0.21100 0.08100 0.08100 0.09500 0.03500
 1990 005    26     0.0   0.846   0.000    60.0  252.20   0.000   0.000   0.000   0.000    5.00   10.00   10.00   15.00   1.330   1.330   1.620   1.660   0.590   0.590   0.590   0.590    0.36    0.36    0.38    0.32 0.21100 0.21100 0.21100 0.21100 0.08100 0.08100 0.09500 0.03500
 1990 006    27     0.0   0.852   0.000    60.0  252.20   0.000   0.000   0.000   0.000    5.00   10.00   10.00   15.00   1.330   1.330   1.620   1.660   0.590   0.590   0.590   0.590    0.36    0.36    0.38    0.32 0.21100 0.21100 0.21100 0.21100 0.08100 0.08100 0.09500 0.03500
 1990 007    28     0.0   0.858   0.000    60.0  252.20   0.000   0.000   0.000   0.000    5.00   10.00   10.00   15.00   1.330   1.330   1.620   1.660   0.590   0.590   0.590   0.590    0.36    0.36    0.38    0.32 0.21100 0.21100 0.21100 0.21100 0.08100 0.08100 0.09500 0.03500
 1990 008    29     0.0   0.865   0.000    60.0  252.20   0.000   0.000   0.000   0.000    5.00   10.00   10.00   15.00   1.330   1.330   1.620   1.660   0.590   0.590   0.590   0.590    0.36    0.36    0.38    0.32 0.21100 0.21100 0.21100 0.21100 0.08100 0.08100 0.09500 0.03500
 1990 009    30     0.0   0.874   0.000    60.0  252.20   0.000   0.000   0.000   0.000    5.00   10.00   10.00   15.00   1.330   1.330   1.620   1.660   0.590   0.590   0.590   0.590    0.36    0.36    0.38    0.32 0.21100 0.21100 0.21100 0.21100 0.08100 0.08100 0.09500 0.03500
 1990 010    31     0.0   0.882   0.000    60.0  252.20   0.000   0.000   0.000   0.000    5.00   10.00   10.00   15.00   1.330   1.330   1.620   1.660   0.590   0.590   0.590   0.590    0.36    0.36    0.38    0.32 0.21100 0.21100 0.21100 0.21100 0.08100 0.08100 0.09500 0.03500
 1990 011    32     0.0   0.891   0.000    60.0  252.20   0.000   0.000   0.000   0.000    5.00   10.00   10.00   15.00   1.330   1.330   1.620   1.660   0.590   0.590   0.590   0.590    0.36    0.36    0.38    0.32 0.21100 0.21100 0.21100 0.21100 0.08100 0.08100 0.09500 0.03500
 1990 012    33     0.0   0.900   0.000    60.0  252.20   0.000   0.000   0.000   0.000    5.00   10.00   10.00   15.00   1.330   1.330   1.620   1.660   0.590   0.590   0.590   0.590    0.36    0.36    0.38    0.32 0.21100 0.21100 0.21100 0.21100 0.08100 0.08100 0.09500 0.03500
 1990 013    34     0.0   0.909   0.000    60.0  252.20   0.000   0.000   0.000   0.000    5.00   10.00   10.00   15.00   1.330   1.330   1.620   1.660   0.590   0.590   0.590   0.590    0.36    0.36    0.38    0.32 0.21100 0.21100 0.21100 0.21100 0.08100 0.08100 0.09500 0.03500
 1990 014    35     0.0   0.917   0.000    60.0  252.20   0.000   0.000   0.000   0.000    5.00   10.00   10.00   15.00   1.330   1.330   1.620   1.660   0.590   0.590   0.590   0.590    0.36    0.36    0.38    0.32 0.21100 0.21100 0.21100 0.21100 0.08100 0.08100 0.09500 0.03500
 1990 015    36     0.0   0.922   0.000    60.0  252.20   0.000   0.000   0.000   0.000    5.00   10.00   10.00   15.00   1.330   1.330   1.620   1.660   0.590   0.590   0.590   0.590    0.36    0.36    0.38    0.32 0.21100 0.21100 0.21100 0.21100 0.08100 0.08100 0.09500 0.03500
 1990 016    37     0.0   0.926   0.000    60.0  252.20   0.000   0.000   0.000   0.000    5.00   10.00   10.00   15.00   1.330   1.330   1.620   1.660   0.590   0.590   0.590   0.590    0.36    0.36    0.38    0.32 0.21100 0.21100 0.21100 0.21100 0.08100 0.08100 0.09500 0.03500
 1990 017    38     0.0   0.931   0.000    60.0  252.20   0.000   0.000   0.000   0.000    5.00   10.00   10.00   15.00   1.330   1.330   1.620   1.660   0.590   0.590   0.590   0.590    0.36    0.36    0.38    0.32 0.21100 0.21100 0.21100 0.21100 0.08100 0.08100 0.09500 0.03500
 1990 018    39     0.0   0.934   0.000    60.0  252.20   0.000   0.000   0.000   0.000    5.00   10.00   10.00   15.00   1.330   1.330   1.620   1.660   0.590   0.590   0.590   0.590    0.36    0.36    0.38    0.32 0.21100 0.21100 0.21100 0.21100 0.08100 0.08100 0.09500 0.03500
 1990 019    40     0.0   0.937   0.000    60.0  252.20   0.000   0.000   0.000   0.000    5.00   10.00   10.00   15.00   1.330   1.330   1.620   1.660   0.590   0.590   0.590   0.590    0.36    0.36    0.38    0.32 0.21100 0.21100 0.21100 0.21100 0.08100 0.08100 0.09500 0.03500
 1990 020    41     0.0   0.940   0.000    60.0  252.20   0.000   0.000   0.000   0.000    5.00   10.00   10.00   15.00   1.330   1.330   1.620   1.660   0.590   0.590   0.590   0.590    0.36    0.36    0.38    0.32 0.21100 0.21100 0.21100 0.21100 0.08100 0.08100 0.09500 0.03500
 1990 021    42     0.0   0.943   0.000    60.0  252.20   0.000   0.000   0.000   0.000    5.00   10.00   10.00   15.00   1.330   1.330   1.620   1.660   0.590   0.590   0.590   0.590    0.36    0.36    0.38    0.32 0.21100 0.21100 0.21100 0.21100 0.08100 0.08100 0.09500 0.03500
 1990 022    43     0.0   0.947   0.000    60.0  252.20   0.000   0.000   0.000   0.000    5.00   10.00   10.00   15.00   1.330   1.330   1.620   1.660   0.590   0.590   0.590   0.590    0.36    0.36    0.38    0.32 0.21100 0.21100 0.21100 0.21100 0.08100 0.08100 0.09500 0.03500
 1990 023    44     0.0   0.953   0.000    60.0  252.20   0.000   0.000   0.000   0.000    5.00   10.00   10.00   15.00   1.330   1.330   1.620   1.660   0.590   0.590   0.590   0.590    0.36    0.36    0.38    0.32 0.21100 0.21100 0.21100 0.21100 0.08100 0.08100 0.09500 0.03500
 1990 024    45     0.0   0.958   0.000    60.0  252.20   0.000   0.000   0.000   0.000    5.00   10.00   10.00   15.00   1.330   1.330   1.620   1.660   0.590   0.590   0.590   0.590    0.36    0.36    0.38    0.32 0.21100 0.21100 0.21100 0.21100 0.08100 0.08100 0.09500 0.03500
 1990 025    46     0.0   0.963   0.000    60.0  252.20   0.000   0.000   0.000   0.000    5.00   10.00   10.00   15.00   1.330   1.330   1.620   1.660   0.590   0.590   0.590   0.590    0.36    0.36    0.38    0.32 0.21100 0.21100 0.21100 0.21100 0.08100 0.08100 0.09500 0.03500
 1990 026    47     0.0   0.968   0.000    60.0  252.20   0.000   0.000   0.000   0.000    5.00   10.00   10.00   15.00   1.330   1.330   1.620   1.660   0.590   0.590   0.590   0.590    0.36    0.36    0.38    0.32 0.21100 0.21100 0.21100 0.21100 0.08100 0.08100 0.09500 0.03500
 1990 027    48     0.0   0.972   0.000    60.0  252.20   0.000   0.000   0.000   0.000    5.00   10.00   10.00   15.00   1.330   1.330   1.620   1.660   0.590   0.590   0.590   0.590    0.36    0.36    0.38    0.32 0.21100 0.21100 0.21100 0.21100 0.08100 0.08100 0.09500 0.03500
 1990 028    49     0.0   0.976   0.000    60.0  252.20   0.000   0.000   0.000   0.000    5.00   10.00   10.00   15.00   1.330   1.330   1.620   1.660   0.590   0.590   0.590   0.590    0.36    0.36    0.38    0.32 0.21100 0.21100 0.21100 0.21100 0.08100 0.08100 0.09500 0.03500
 1990 029    50     0.0   0.979   0.000    60.0  252.20   0.000   0.000   0.000   0.000    5.00   10.00   10.00   15.00   1.330   1.330   1.620   1.660   0.590   0.590   0.590   0.590    0.36    0.36    0.38    0.32 0.21100 0.21100 0.21100 0.21100 0.08100 0.08100 0.09500 0.03500
 1990 030    51     0.0   0.981   0.000    60.0  252.20   0.000   0.000   0.000   0.000    5.00   10.00   10.00   15.00   1.330   1.330   1.620   1.660   0.590   0.590   0.590   0.590    0.36    0.36    0.38    0.32 0.21100 0.21100 0.21100 0.21100 0.08100 0.08100 0.09500 0.03500
 1990 031    52     0.0   0.983   0.000    60.0  252.20   0.000   0.000   0.000   0.000    5.00   10.00   10.00   15.00   1.330   1.330   1.620   1.660   0.590   0.590   0.590   0.590    0.36    0.36    0.38    0.32 0.21100 0.21100 0.21100 0.21100 0.08100 0.08100 0.09500 0.03500
 1990 032    53     0.0   0.984   0.000    60.0  252.20   0.000   0.000   0.000   0.000    5.00   10.00   10.00   15.00   1.330   1.330   1.620   1.660   0.590   0.590   0.590   0.590    0.36    0.36    0.38    0.32 0.21100 0.21100 0.21100 0.21100 0.08100 0.08100 0.09500 0.03500
 1990 033    54     0.0   0.986   0.000    60.0  252.20   0.000   0.000   0.000   0.000    5.00   10.00   10.00   15.00   1.330   1.330   1.620   1.660   0.590   0.590   0.590   0.590    0.36    0.36    0.38    0.32 0.21100 0.21100 0.21100 0.21100 0.08100 0.08100 0.09500 0.03500
 1990 034    55     0.0   0.987   0.000    60.0  252.20   0.000   0.000   0.000   0.000    5.00   10.00   10.00   15.00   1.330   1.330   1.620   1.660   0.590   0.590   0.590   0.590    0.36    0.36    0.38    0.32 0.21100 0.21100 0.21100 0.21100 0.08100 0.08100 0.09500 0.03500
 1990 035    56     0.0   0.988   0.000    60.0  252.20   0.000   0.000   0.000   0.000    5.00   10.00   10.00   15.00   1.330   1.330   1.620   1.660   0.590   0.590   0.590   0.590    0.36    0.36    0.38    0.32 0.21100 0.21100 0.21100 0.21100 0.08100 0.08100 0.09500 0.03500
 1990 036    57     0.0   0.988   0.000    60.0  252.20   0.000   0.000   0.000   0.000    5.00   10.00   10.00   15.00   1.330   1.330   1.620   1.660   0.590   0.590   0.590   0.590    0.36    0.36    0.38    0.32 0.21100 0.21100 0.21100 0.21100 0.08100 0.08100 0.09500 0.03500
 1990 037    58     0.0   0.989   0.000    60.0  252.20   0.000   0.000   0.000   0.000    5.00   10.00   10.00   15.00   1.330   1.330   1.620   1.660   0.590   0.590   0.590   0.590    0.36    0.36    0.38    0.32 0.21100 0.21100 0.21100 0.21100 0.08100 0.08100 0.09500 0.03500
 1990 038    59     0.0   0.991   0.000    60.0  252.20   0.000   0.000   0.000   0.000    5.00   10.00   10.00   15.00   1.330   1.330   1.620   1.660   0.590   0.590   0.590   0.590    0.36    0.36    0.38    0.32 0.21100 0.21100 0.21100 0.21100 0.08100 0.08100 0.09500 0.03500
 1990 039    60     0.0   0.992   0.000    60.0  252.20   0.000   0.000   0.000   0.000    5.00   10.00   10.00   15.00   1.330   1.330   1.620   1.660   0.590   0.590   0.590   0.590    0.36    0.36    0.38    0.32 0.21100 0.21100 0.21100 0.21100 0.08100 0.08100 0.09500 0.03500
 1990 040    61     0.0   0.992   0.000    60.0  252.20   0.000   0.000   0.000   0.000    5.00   10.00   10.00   15.00   1.330   1.330   1.620   1.660   0.590   0.590   0.590   0.590    0.36    0.36    0.38    0.32 0.21100 0.21100 0.21100 0.21100 0.08100 0.08100 0.09500 0.03500
 1990 041    62     0.0   0.993   0.000    60.0  252.20   0.000   0.000   0.000   0.000    5.00   10.00   10.00   15.00   1.330   1.330   1.620   1.660   0.590   0.590   0.590   0.590    0.36    0.36    0.38    0.32 0.21100 0.21100 0.21100 0.21100 0.08100 0.08100 0.09500 0.03500
 1990 042    63     0.0   0.994   0.000    60.0  252.20   0.000   0.000   0.000   0.000    5.00   10.00   10.00   15.00   1.330   1.330   1.620   1.660   0.590   0.590   0.590   0.590    0.36    0.36    0.38    0.32 0.21100 0.21100 0.21100 0.21100 0.08100 0.08100 0.09500 0.03500
 1990 043    64     0.0   0.994   0.000    60.0  252.20   0.000   0.000   0.000   0.000    5.00   10.00   10.00   15.00   1.330   1.330   1.620   1.660   0.590   0.590   0.590   0.590    0.36    0.36    0.38    0.32 0.21100 0.21100 0.21100 0.21100 0.08100 0.08100 0.09500 0.03500
 1990 044    65     0.0   0.994   0.000    60.0  252.20   0.000   0.000   0.000   0.000    5.00   10.00   10.00   15.00   1.330   1.330   1.620   1.660   0.590   0.590   0.590   0.590    0.36    0.36    0.38    0.32 0.21100 0.21100 0.21100 0.21100 0.08100 0.08100 0.09500 0.03500
 1990 045    66     0.0   0.994   0.000    60.0  252.20   0.000   0.000   0.000   0.000    5.00   10.00   10.00   15.00   1.330   1.330   1.620   1.660   0.590   0.590   0.590   0.590    0.36    0.36    0.38    0.32 0.21100 0.21100 0.21100 0.21100 0.08100 0.08100 0.09500 0.03500
 1990 046    67     0.0   0.994   0.000    60.0  252.20   0.000   0.000   0.000   0.000    5.00   10.00   10.00   15.00   1.330   1.330   1.620   1.660   0.590   0.590   0.590   0.590    0.36    0.36    0.38    0.32 0.21100 0.21100 0.21100 0.21100 0.08100 0.08100 0.09500 0.03500
 1990 047    68     0.0   0.994   0.000    60.0  252.20   0.000   0.000   0.000   0.000    5.00   10.00   10.00   15.00   1.330   1.330   1.620   1.660   0.590   0.590   0.590   0.590    0.36    0.36    0.38    0.32 0.21100 0.21100 0.21100 0.21100 0.08100 0.08100 0.09500 0.03500
 1990 048    69     0.0   0.993   0.000    60.0  252.20   0.000   0.000   0.000   0.000    5.00   10.00   10.00   15.00   1.330   1.330   1.620   1.660   0.590   0.590   0.590   0.590    0.36    0.36    0.38    0.32 0.21100 0.21100 0.21100 0.21100 0.08100 0.08100 0.09500 0.03500
 1990 049    70     0.0   0.993   0.000    60.0  252.20   0.000   0.000   0.000   0.000    5.00   10.00   10.00   15.00   1.330   1.330   1.620   1.660   0.590   0.590   0.590   0.590    0.36    0.36    0.38    0.32 0.21100 0.21100 0.21100 0.21100 0.08100 0.08100 0.09500 0.03500
 1990 050    71     0.0   0.993   0.000    60.0  252.20   0.000   0.000   0.000   0.000    5.00   10.00   10.00   15.00   1.330   1.330   1.620   1.660   0.590   0.590   0.590   0.590    0.36    0.36    0.38    0.32 0.21100 0.21100 0.21100 0.21100 0.08100 0.08100 0.09500 0.03500
 1990 051    72     0.0   0.993   0.000    60.0  252.20   0.000   0.000   0.000   0.000    5.00   10.00   10.00   15.00   1.330   1.330   1.620   1.660   0.590   0.590   0.590   0.590    0.36    0.36    0.38    0.32 0.21100 0.21100 0.21100 0.21100 0.08100 0.08100 0.09500 0.03500
 1990 052    73     0.0   0.993   0.000    60.0  252.20   0.000   0.000   0.000   0.000    5.00   10.00   10.00   15.00   1.330   1.330   1.620   1.660   0.590   0.590   0.590   0.590    0.36    0.36    0.38    0.32 0.21100 0.21100 0.21100 0.21100 0.08100 0.08100 0.09500 0.03500
 1990 053    74     0.0   0.992   0.000    60.0  252.20   0.000   0.000   0.000   0.000    5.00   10.00   10.00   15.00   1.330   1.330   1.620   1.660   0.590   0.590   0.590   0.590    0.36    0.36    0.38    0.32 0.21100 0.21100 0.21100 0.21100 0.08100 0.08100 0.09500 0.03500
 1990 054    75     0.0   0.992   0.000    60.0  252.20   0.000   0.000   0.000   0.000    5.00   10.00   10.00   15.00   1.330   1.330   1.620   1.660   0.590   0.590   0.590   0.590    0.36    0.36    0.38    0.32 0.21100 0.21100 0.21100 0.21100 0.08100 0.08100 0.09500 0.03500
 1990 055    76     0.0   0.992   0.000    60.0  252.20   0.000   0.000   0.000   0.000    5.00   10.00   10.00   15.00   1.330   1.330   1.620   1.660   0.590   0.590   0.590   0.590    0.36    0.36    0.38    0.32 0.21100 0.21100 0.21100 0.21100 0.08100 0.08100 0.09500 0.03500
 1990 056    77     0.0   0.991   0.000    60.0  252.20   0.000   0.000   0.000   0.000    5.00   10.00   10.00   15.00   1.330   1.330   1.620   1.660   0.590   0.590   0.590   0.590    0.36    0.36    0.38    0.32 0.21100 0.21100 0.21100 0.21100 0.08100 0.08100 0.09500 0.03500
 1990 057    78     0.0   0.991   0.000    60.0  252.20   0.000   0.000   0.000   0.000    5.00   10.00   10.00   15.00   1.330   1.330   1.620   1.660   0.590   0.590   0.590   0.590    0.36    0.36    0.38    0.32 0.21100 0.21100 0.21100 0.21100 0.08100 0.08100 0.09500 0.03500
 1990 058    79     0.0   0.991   0.000    60.0  252.20   0.000   0.000   0.000   0.000    5.00   10.00   10.00   15.00   1.330   1.330   1.620   1.660   0.590   0.590   0.590   0.590    0.36    0.36    0.38    0.32 0.21100 0.21100 0.21100 0.21100 0.08100 0.08100 0.09500 0.03500
 1990 059    80     0.0   0.990   0.000    60.0  252.20   0.000   0.000   0.000   0.000    5.00   10.00   10.00   15.00   1.330   1.330   1.620   1.660   0.590   0.590   0.590   0.590    0.36    0.36    0.38    0.32 0.21100 0.21100 0.21100 0.21100 0.08100 0.08100 0.09500 0.03500
 1990 060    81     0.0   0.990   0.000    60.0  252.20   0.000   0.000   0.000   0.000    5.00   10.00   10.00   15.00   1.330   1.330   1.620   1.660   0.590   0.590   0.590   0.590    0.36    0.36    0.38    0.32 0.21100 0.21100 0.21100 0.21100 0.08100 0.08100 0.09500 0.03500
 1990 061    82     0.0   0.990   0.000    60.0  252.20   0.000   0.000   0.000   0.000    5.00   10.00   10.00   15.00   1.330   1.330   1.620   1.660   0.590   0.590   0.590   0.590    0.36    0.36    0.38    0.32 0.21100 0.21100 0.21100 0.21100 0.08100 0.08100 0.09500 0.03500
 1990 062    83     0.0   0.989   0.000    60.0  252.20   0.000   0.000   0.000   0.000    5.00   10.00   10.00   15.00   1.330   1.330   1.620   1.660   0.590   0.590   0.590   0.590    0.36    0.36    0.38    0.32 0.21100 0.21100 0.21100 0.21100 0.08100 0.08100 0.09500 0.03500
 1990 063    84     0.0   0.988   0.000    60.0  252.20   0.000   0.000   0.000   0.000    5.00   10.00   10.00   15.00   1.330   1.330   1.620   1.660   0.590   0.590   0.590   0.590    0.36    0.36    0.38    0.32 0.21100 0.21100 0.21100 0.21100 0.08100 0.08100 0.09500 0.03500
 1990 064    85     0.0   0.988   0.000    60.0  252.20   0.000   0.000   0.000   0.000    5.00   10.00   10.00   15.00   1.330   1.330   1.620   1.660   0.590   0.590   0.590   0.590    0.36    0.36    0.38    0.32 0.21100 0.21100 0.21100 0.21100 0.08100 0.08100 0.09500 0.03500
 1990 065    86     0.0   0.987   0.000    60.0  252.20   0.000   0.000   0.000   0.000    5.00   10.00   10.00   15.00   1.330   1.330   1.620   1.660   0.590   0.590   0.590   0.590    0.36    0.36    0.38    0.32 0.21100 0.21100 0.21100 0.21100 0.08100 0.08100 0.09500 0.03500
 1990 066    87     0.0   0.986   0.000    60.0  252.20   0.000   0.000   0.000   0.000    5.00   10.00   10.00   15.00   1.330   1.330   1.620   1.660   0.590   0.590   0.590   0.590    0.36    0.36    0.38    0.32 0.21100 0.21100 0.21100 0.21100 0.08100 0.08100 0.09500 0.03500
 1990 067    88     0.0   0.985   0.000    60.0  252.20   0.000   0.000   0.000   0.000    5.00   10.00   10.00   15.00   1.330   1.330   1.620   1.660   0.590   0.590   0.590   0.590    0.36    0.36    0.38    0.32 0.21100 0.21100 0.21100 0.21100 0.08100 0.08100 0.09500 0.03500
 1990 068    89     0.0   0.984   0.000    60.0  252.20   0.000   0.000   0.000   0.000    5.00   10.00   10.00   15.00   1.330   1.330   1.620   1.660   0.590   0.590   0.590   0.590    0.36    0.36    0.38    0.32 0.21100 0.21100 0.21100 0.21100 0.08100 0.08100 0.09500 0.03500
 1990 069    90     0.0   0.984   0.000    60.0  252.20   0.000   0.000   0.000   0.000    5.00   10.00   10.00   15.00   1.330   1.330   1.620   1.660   0.590   0.590   0.590   0.590    0.36    0.36    0.38    0.32 0.21100 0.21100 0.21100 0.21100 0.08100 0.08100 0.09500 0.03500
 1990 070    91     0.0   0.983   0.000    60.0  252.20   0.000   0.000   0.000   0.000    5.00   10.00   10.00   15.00   1.330   1.330   1.620   1.660   0.590   0.590   0.590   0.590    0.36    0.36    0.38    0.32 0.21100 0.21100 0.21100 0.21100 0.08100 0.08100 0.09500 0.03500
 1990 071    92     0.0   0.982   0.000    60.0  252.20   0.000   0.000   0.000   0.000    5.00   10.00   10.00   15.00   1.330   1.330   1.620   1.660   0.590   0.590   0.590   0.590    0.36    0.36    0.38    0.32 0.21100 0.21100 0.21100 0.21100 0.08100 0.08100 0.09500 0.03500
 1990 072    93     0.0   0.981   0.000    60.0  252.20   0.000   0.000   0.000   0.000    5.00   10.00   10.00   15.00   1.330   1.330   1.620   1.660   0.590   0.590   0.590   0.590    0.36    0.36    0.38    0.32 0.21100 0.21100 0.21100 0.21100 0.08100 0.08100 0.09500 0.03500
 1990 073    94     0.0   0.981   0.000    60.0  252.20   0.000   0.000   0.000   0.000    5.00   10.00   10.00   15.00   1.330   1.330   1.620   1.660   0.590   0.590   0.590   0.590    0.36    0.36    0.38    0.32 0.21100 0.21100 0.21100 0.21100 0.08100 0.08100 0.09500 0.03500
 1990 074    95     0.0   0.981   0.000    60.0  252.20   0.000   0.000   0.000   0.000    5.00   10.00   10.00   15.00   1.330   1.330   1.620   1.660   0.590   0.590   0.590   0.590    0.36    0.36    0.38    0.32 0.21100 0.21100 0.21100 0.21100 0.08100 0.08100 0.09500 0.03500
 1990 075    96     0.0   0.981   0.000    60.0  252.20   0.000   0.000   0.000   0.000    5.00   10.00   10.00   15.00   1.330   1.330   1.620   1.660   0.590   0.590   0.590   0.590    0.36    0.36    0.38    0.32 0.21100 0.21100 0.21100 0.21100 0.08100 0.08100 0.09500 0.03500
 1990 076    97     0.0   0.980   0.000    60.0  252.20   0.000   0.000   0.000   0.000    5.00   10.00   10.00   15.00   1.330   1.330   1.620   1.660   0.590   0.590   0.590   0.590    0.36    0.36    0.38    0.32 0.21100 0.21100 0.21100 0.21100 0.08100 0.08100 0.09500 0.03500
 1990 077    98     0.0   0.980   0.000    60.0  252.20   0.000   0.000   0.000   0.000    5.00   10.00   10.00   15.00   1.330   1.330   1.620   1.660   0.590   0.590   0.590   0.590    0.36    0.36    0.38    0.32 0.21100 0.21100 0.21100 0.21100 0.08100 0.08100 0.09500 0.03500
 1990 078    99     0.0   0.980   0.000    60.0  252.20   0.000   0.000   0.000   0.000    5.00   10.00   10.00   15.00   1.330   1.330   1.620   1.660   0.590   0.590   0.590   0.590    0.36    0.36    0.38    0.32 0.21100 0.21100 0.21100 0.21100 0.08100 0.08100 0.09500 0.03500
 1990 079   100     0.0   0.979   0.000    60.0  252.20   0.000   0.000   0.000   0.000    5.00   10.00   10.00   15.00   1.330   1.330   1.620   1.660   0.590   0.590   0.590   0.590    0.36    0.36    0.38    0.32 0.21100 0.21100 0.21100 0.21100 0.08100 0.08100 0.09500 0.03500
 1990 080   101     0.0   0.978   0.000    60.0  252.20   0.000   0.000   0.000   0.000    5.00   10.00   10.00   15.00   1.330   1.330   1.620   1.660   0.590   0.590   0.590   0.590    0.36    0.36    0.38    0.32 0.21100 0.21100 0.21100 0.21100 0.08100 0.08100 0.09500 0.03500
 1990 081   102     0.0   0.978   0.000    60.0  252.20   0.000   0.000   0.000   0.000    5.00   10.00   10.00   15.00   1.330   1.330   1.620   1.660   0.590   0.590   0.590   0.590    0.36    0.36    0.38    0.32 0.21100 0.21100 0.21100 0.21100 0.08100 0.08100 0.09500 0.03500
 1990 082   103     0.0   0.977   0.000    60.0  252.20   0.000   0.000   0.000   0.000    5.00   10.00   10.00   15.00   1.330   1.330   1.620   1.660   0.590   0.590   0.590   0.590    0.36    0.36    0.38    0.32 0.21100 0.21100 0.21100 0.21100 0.08100 0.08100 0.09500 0.03500
 1990 083   104     0.0   0.976   0.000    60.0  252.20   0.000   0.000   0.000   0.000    5.00   10.00   10.00   15.00   1.330   1.330   1.620   1.660   0.590   0.590   0.590   0.590    0.36    0.36    0.38    0.32 0.21100 0.21100 0.21100 0.21100 0.08100 0.08100 0.09500 0.03500
 1990 084   105     0.0   0.974   0.000    60.0  252.20   0.000   0.000   0.000   0.000    5.00   10.00   10.00   15.00   1.330   1.330   1.620   1.660   0.590   0.590   0.590   0.590    0.36    0.36    0.38    0.32 0.21100 0.21100 0.21100 0.21100 0.08100 0.08100 0.09500 0.03500
 1990 085   106     0.0   0.973   0.000    60.0  252.20   0.000   0.000   0.000   0.000    5.00   10.00   10.00   15.00   1.330   1.330   1.620   1.660   0.590   0.590   0.590   0.590    0.36    0.36    0.38    0.32 0.21100 0.21100 0.21100 0.21100 0.08100 0.08100 0.09500 0.03500
 1990 086   107     0.0   0.971   0.000    60.0  252.20   0.000   0.000   0.000   0.000    5.00   10.00   10.00   15.00   1.330   1.330   1.620   1.660   0.590   0.590   0.590   0.590    0.36    0.36    0.38    0.32 0.21100 0.21100 0.21100 0.21100 0.08100 0.08100 0.09500 0.03500
 1990 087   108     0.0   0.969   0.000    60.0  252.20   0.000   0.000   0.000   0.000    5.00   10.00   10.00   15.00   1.330   1.330   1.620   1.660   0.590   0.590   0.590   0.590    0.36    0.36    0.38    0.32 0.21100 0.21100 0.21100 0.21100 0.08100 0.08100 0.09500 0.03500
 1990 088   109     0.0   0.967   0.000    60.0  252.20   0.000   0.000   0.000   0.000    5.00   10.00   10.00   15.00   1.330   1.330   1.620   1.660   0.590   0.590   0.590   0.590    0.36    0.36    0.38    0.32 0.21100 0.21100 0.21100 0.21100 0.08100 0.08100 0.09500 0.03500
 1990 089   110     0.0   0.964   0.000    60.0  252.20   0.000   0.000   0.000   0.000    5.00   10.00   10.00   15.00   1.330   1.330   1.620   1.660   0.590   0.590   0.590   0.590    0.36    0.36    0.38    0.32 0.21100 0.21100 0.21100 0.21100 0.08100 0.08100 0.09500 0.03500
 1990 090   111     0.0   0.962   0.000    60.0  252.20   0.000   0.000   0.000   0.000    5.00   10.00   10.00   15.00   1.330   1.330   1.620   1.660   0.590   0.590   0.590   0.590    0.36    0.36    0.38    0.32 0.21100 0.21100 0.21100 0.21100 0.08100 0.08100 0.09500 0.03500
 1990 091   112     0.0   0.957   0.000    60.0  252.20   0.000   0.000   0.000   0.000    5.00   10.00   10.00   15.00   1.330   1.330   1.620   1.660   0.590   0.590   0.590   0.590    0.36    0.36    0.38    0.32 0.21100 0.21100 0.21100 0.21100 0.08100 0.08100 0.09500 0.03500
 1990 092   113     0.0   0.954   0.000    60.0  252.20   0.000   0.000   0.000   0.000    5.00   10.00   10.00   15.00   1.330   1.330   1.620   1.660   0.590   0.590   0.590   0.590    0.36    0.36    0.38    0.32 0.21100 0.21100 0.21100 0.21100 0.08100 0.08100 0.09500 0.03500
 1990 093   114     0.0   0.950   0.000    60.0  252.20   0.000   0.000   0.000   0.000    5.00   10.00   10.00   15.00   1.330   1.330   1.620   1.660   0.590   0.590   0.590   0.590    0.36    0.36    0.38    0.32 0.21100 0.21100 0.21100 0.21100 0.08100 0.08100 0.09500 0.03500
 1990 094   115     0.0   0.945   0.000    60.0  252.20   0.000   0.000   0.000   0.000    5.00   10.00   10.00   15.00   1.330   1.330   1.620   1.660   0.590   0.590   0.590   0.590    0.36    0.36    0.38    0.32 0.21100 0.21100 0.21100 0.21100 0.08100 0.08100 0.09500 0.03500
 1990 095   116     0.0   0.940   0.000    60.0  252.20   0.000   0.000   0.000   0.000    5.00   10.00   10.00   15.00   1.330   1.330   1.620   1.660   0.590   0.590   0.590   0.590    0.36    0.36    0.38    0.32 0.21100 0.21100 0.21100 0.21100 0.08100 0.08100 0.09500 0.03500
 1990 096   117     0.0   0.933   0.000    60.0  252.20   0.000   0.000   0.000   0.000    5.00   10.00   10.00   15.00   1.330   1.330   1.620   1.660   0.590   0.590   0.590   0.590    0.36    0.36    0.38    0.32 0.21100 0.21100 0.21100 0.21100 0.08100 0.08100 0.09500 0.03500
 1990 097   118     0.0   0.925   0.000    60.0  252.20   0.000   0.000   0.000   0.000    5.00   10.00   10.00   15.00   1.330   1.330   1.620   1.660   0.590   0.590   0.590   0.590    0.36    0.36    0.38    0.32 0.21100 0.21100 0.21100 0.21100 0.08100 0.08100 0.09500 0.03500
 1990 098   119     0.0   0.916   0.000    60.0  252.20   0.000   0.000   0.000   0.000    5.00   10.00   10.00   15.00   1.330   1.330   1.620   1.660   0.590   0.590   0.590   0.590    0.36    0.36    0.38    0.32 0.21100 0.21100 0.21100 0.21100 0.08100 0.08100 0.09500 0.03500
 1990 099   120     0.0   0.903   0.000    60.0  252.20   0.000   0.000   0.000   0.000    5.00   10.00   10.00   15.00   1.330   1.330   1.620   1.660   0.590   0.590   0.590   0.590    0.36    0.36    0.38    0.32 0.21100 0.21100 0.21100 0.21100 0.08100 0.08100 0.09500 0.03500
 1990 100   121     0.0   0.887   0.000    60.0  252.20   0.000   0.000   0.000   0.000    5.00   10.00   10.00   15.00   1.330   1.330   1.620   1.660   0.590   0.590   0.590   0.590    0.36    0.36    0.38    0.32 0.21100 0.21100 0.21100 0.21100 0.08100 0.08100 0.09500 0.03500
 1990 101   122     0.0   0.867   0.000    60.0  252.20   0.000   0.000   0.000   0.000    5.00   10.00   10.00   15.00   1.330   1.330   1.620   1.660   0.590   0.590   0.590   0.590    0.36    0.36    0.38    0.32 0.21100 0.21100 0.21100 0.21100 0.08100 0.08100 0.09500 0.03500
 1990 102   123     0.0   0.844   0.000    60.0  252.20   0.000   0.000   0.000   0.000    5.00   10.00   10.00   15.00   1.330   1.330   1.620   1.660   0.590   0.590   0.590   0.590    0.36    0.36    0.38    0.32 0.21100 0.21100 0.21100 0.21100 0.08100 0.08100 0.09500 0.03500
 1990 103   124     0.0   0.719   0.000    60.0  252.20   0.000   0.000   0.000   0.000    5.00   10.00   10.00   15.00   1.330   1.330   1.620   1.660   0.590   0.590   0.590   0.590    0.36    0.36    0.38    0.32 0.21100 0.21100 0.21100 0.21100 0.08100 0.08100 0.09500 0.03500
 1990 104   125     0.0   0.697   0.000    60.0  252.20   0.000   0.000   0.000   0.000    5.00   10.00   10.00   15.00   1.330   1.330   1.620   1.660   0.590   0.590   0.590   0.590    0.36    0.36    0.38    0.32 0.21100 0.21100 0.21100 0.21100 0.08100 0.08100 0.09500 0.03500
 1990 105   126     0.0   0.695   0.000    60.0  252.20   0.000   0.000   0.000   0.000    5.00   10.00   10.00   15.00   1.330   1.330   1.620   1.660   0.590   0.590   0.590   0.590    0.36    0.36    0.38    0.32 0.21100 0.21100 0.21100 0.21100 0.08100 0.08100 0.09500 0.03500
 1990 106   127     0.0   0.693   0.000    60.0  252.20   0.000   0.000   0.000   0.000    5.00   10.00   10.00   15.00   1.330   1.330   1.620   1.660   0.590   0.590   0.590   0.590    0.36    0.36    0.38    0.32 0.21100 0.21100 0.21100 0.21100 0.08100 0.08100 0.09500 0.03500
