*SOIL TEMPERATURE OUTPUT FILE (DAILY)

*DSSAT Cropping System Model Ver. 4.5.1.014 -Release      JAN 29, 2013; 15:02:32
                                                                                
*RUN   1        : Irrigated + Nitrogen      WHAPS045 UFMX8902    3              
 MODEL          : WHAPS045 - Wheat                                              
 EXPERIMENT     : UFMX8902 WH  Mexi (NWheat migration to DSSAT)                 
 DATA PATH      : C:\DSSAT45\WHEAT\                                             
 TREATMENT  3   : Irrigated + Nitrogen      WHAPS045                            
  
!               Temperature (oC) by soil depth (cm):
!               Surface     0-5    5-15   15-25   25-40   40-55   55-70   70-90  90-120 120-150
@YEAR DOY   DAS    TS0D    TS1D    TS2D    TS3D    TS4D    TS5D    TS6D    TS7D    TS8D    TS9D    
 1989 345     1    24.4    24.3    24.3    24.2    24.1    24.0    23.9    23.8    23.6    23.4
 1989 346     2    23.7    23.6    23.6    23.5    23.5    23.4    23.3    23.2    23.1    23.0
 1989 347     3    23.0    23.0    23.0    23.0    22.9    22.8    22.8    22.7    22.6    22.5
 1989 348     4    22.2    22.2    22.2    22.2    22.2    22.1    22.1    22.1    22.1    22.0
 1989 349     5    21.7    21.7    21.6    21.6    21.6    21.6    21.6    21.6    21.6    21.6
 1989 350     6    21.0    21.0    21.0    21.1    21.1    21.1    21.1    21.1    21.2    21.2
 1989 351     7    20.1    20.1    20.1    20.2    20.2    20.3    20.4    20.4    20.5    20.6
 1989 352     8    19.6    19.6    19.6    19.7    19.7    19.8    19.9    20.0    20.1    20.2
 1989 353     9    19.5    19.5    19.5    19.6    19.6    19.7    19.8    19.9    20.0    20.2
 1989 354    10    19.2    19.3    19.3    19.4    19.5    19.5    19.6    19.7    19.9    20.0
 1989 355    11    19.6    19.6    19.6    19.7    19.8    19.8    19.9    20.0    20.1    20.2
 1989 356    12    20.6    20.7    20.7    20.7    20.7    20.8    20.8    20.8    20.9    20.9
 1989 357    13    21.3    21.3    21.3    21.3    21.3    21.3    21.3    21.3    21.3    21.3
 1989 358    14    21.8    21.8    21.8    21.8    21.8    21.8    21.8    21.8    21.7    21.7
 1989 359    15    22.2    22.2    22.2    22.2    22.2    22.1    22.1    22.1    22.0    22.0
 1989 360    16    22.7    22.7    22.7    22.6    22.6    22.5    22.5    22.4    22.4    22.3
 1989 361    17    22.5    22.5    22.5    22.4    22.4    22.3    22.3    22.3    22.2    22.1
 1989 362    18    22.4    22.4    22.4    22.3    22.3    22.3    22.2    22.2    22.1    22.1
 1989 363    19    21.9    21.9    21.9    21.9    21.9    21.9    21.8    21.8    21.8    21.8
 1989 364    20    21.3    21.3    21.3    21.3    21.3    21.3    21.3    21.3    21.3    21.3
 1989 365    21    20.4    20.4    20.4    20.4    20.5    20.5    20.5    20.6    20.6    20.7
 1990 001    22    20.3    20.3    20.3    20.4    20.4    20.4    20.5    20.5    20.6    20.7
 1990 002    23    20.0    20.0    20.0    20.1    20.1    20.2    20.2    20.3    20.4    20.5
 1990 003    24    19.8    19.8    19.8    19.9    19.9    20.0    20.1    20.1    20.2    20.3
 1990 004    25    19.2    19.2    19.3    19.3    19.4    19.5    19.6    19.7    19.8    19.9
 1990 005    26    18.9    18.9    19.0    19.0    19.1    19.2    19.3    19.4    19.6    19.7
 1990 006    27    18.2    18.2    18.3    18.4    18.5    18.6    18.8    18.9    19.1    19.3
 1990 007    28    18.2    18.2    18.3    18.3    18.5    18.6    18.7    18.8    19.0    19.2
 1990 008    29    18.5    18.5    18.6    18.7    18.8    18.9    19.0    19.1    19.3    19.4
 1990 009    30    19.8    19.8    19.8    19.8    19.9    20.0    20.0    20.1    20.2    20.3
 1990 010    31    21.3    21.3    21.3    21.3    21.3    21.3    21.3    21.3    21.3    21.3
 1990 011    32    22.8    22.8    22.7    22.7    22.6    22.6    22.5    22.4    22.4    22.3
 1990 012    33    23.7    23.6    23.6    23.5    23.4    23.3    23.2    23.1    23.0    22.9
 1990 013    34    24.2    24.2    24.1    24.0    23.9    23.8    23.7    23.5    23.4    23.2
 1990 014    35    24.2    24.1    24.1    24.0    23.9    23.8    23.6    23.5    23.3    23.2
 1990 015    36    23.6    23.6    23.5    23.5    23.4    23.3    23.2    23.1    22.9    22.8
 1990 016    37    22.9    22.9    22.8    22.8    22.7    22.7    22.6    22.5    22.4    22.3
 1990 017    38    21.9    21.9    21.9    21.8    21.8    21.8    21.8    21.7    21.7    21.7
 1990 018    39    20.7    20.7    20.7    20.7    20.7    20.7    20.7    20.8    20.8    20.8
 1990 019    40    19.3    19.3    19.4    19.4    19.5    19.5    19.6    19.7    19.8    19.9
 1990 020    41    18.2    18.3    18.3    18.4    18.5    18.6    18.7    18.9    19.0    19.2
 1990 021    42    18.0    18.0    18.1    18.2    18.3    18.4    18.5    18.6    18.8    19.0
 1990 022    43    18.2    18.3    18.3    18.4    18.5    18.6    18.7    18.9    19.0    19.2
 1990 023    44    18.8    18.8    18.9    18.9    19.0    19.1    19.2    19.3    19.4    19.6
 1990 024    45    20.2    20.2    20.2    20.2    20.2    20.3    20.3    20.3    20.4    20.5
 1990 025    46    21.9    21.9    21.9    21.9    21.8    21.8    21.8    21.7    21.7    21.6
 1990 026    47    23.0    23.0    22.9    22.9    22.8    22.7    22.7    22.6    22.5    22.4
 1990 027    48    23.7    23.7    23.7    23.6    23.5    23.4    23.3    23.2    23.0    22.9
 1990 028    49    24.4    24.4    24.3    24.2    24.1    23.9    23.8    23.7    23.5    23.3
 1990 029    50    24.5    24.5    24.4    24.3    24.2    24.0    23.9    23.8    23.6    23.4
 1990 030    51    24.1    24.0    24.0    23.9    23.8    23.6    23.5    23.4    23.2    23.1
 1990 031    52    23.1    23.0    23.0    22.9    22.9    22.8    22.7    22.6    22.5    22.4
 1990 032    53    21.7    21.7    21.7    21.7    21.6    21.6    21.6    21.6    21.5    21.5
 1990 033    54    20.5    20.5    20.5    20.6    20.6    20.6    20.6    20.6    20.6    20.7
 1990 034    55    19.6    19.6    19.7    19.7    19.7    19.8    19.8    19.9    20.0    20.1
 1990 035    56    19.0    19.0    19.0    19.1    19.1    19.2    19.3    19.4    19.5    19.6
 1990 036    57    19.1    19.1    19.1    19.2    19.2    19.3    19.4    19.4    19.6    19.7
 1990 037    58    19.7    19.7    19.8    19.8    19.8    19.9    19.9    20.0    20.0    20.1
 1990 038    59    20.4    20.4    20.4    20.4    20.4    20.4    20.5    20.5    20.5    20.6
 1990 039    60    20.7    20.7    20.7    20.7    20.7    20.7    20.7    20.7    20.7    20.8
 1990 040    61    20.8    20.8    20.8    20.8    20.8    20.8    20.8    20.8    20.8    20.8
 1990 041    62    21.2    21.2    21.2    21.1    21.1    21.1    21.1    21.1    21.1    21.1
 1990 042    63    21.9    21.9    21.8    21.8    21.8    21.7    21.7    21.6    21.6    21.5
 1990 043    64    22.7    22.7    22.6    22.6    22.5    22.4    22.4    22.3    22.2    22.1
 1990 044    65    23.2    23.2    23.2    23.1    23.0    22.9    22.8    22.7    22.6    22.4
 1990 045    66    23.0    23.0    23.0    22.9    22.8    22.7    22.6    22.5    22.4    22.3
 1990 046    67    21.9    21.9    21.9    21.9    21.8    21.8    21.7    21.7    21.6    21.6
 1990 047    68    20.6    20.6    20.6    20.6    20.6    20.6    20.6    20.6    20.6    20.6
 1990 048    69    19.4    19.4    19.4    19.4    19.5    19.5    19.6    19.6    19.7    19.8
 1990 049    70    18.7    18.7    18.8    18.8    18.9    19.0    19.1    19.1    19.3    19.4
 1990 050    71    19.1    19.1    19.1    19.2    19.2    19.3    19.4    19.4    19.5    19.6
 1990 051    72    19.7    19.7    19.7    19.8    19.8    19.8    19.9    19.9    20.0    20.1
 1990 052    73    20.5    20.5    20.5    20.5    20.5    20.5    20.5    20.5    20.6    20.6
 1990 053    74    21.2    21.2    21.2    21.2    21.1    21.1    21.1    21.1    21.0    21.0
 1990 054    75    22.2    22.2    22.2    22.1    22.0    22.0    21.9    21.9    21.8    21.7
 1990 055    76    23.2    23.2    23.2    23.1    23.0    22.9    22.8    22.6    22.5    22.3
 1990 056    77    24.4    24.4    24.3    24.2    24.0    23.9    23.7    23.5    23.3    23.1
 1990 057    78    25.1    25.1    25.0    24.8    24.6    24.5    24.3    24.1    23.8    23.5
 1990 058    79    25.6    25.6    25.4    25.3    25.1    24.9    24.7    24.4    24.1    23.8
 1990 059    80    25.7    25.6    25.5    25.3    25.1    24.9    24.7    24.5    24.2    23.9
 1990 060    81    25.6    25.5    25.4    25.2    25.0    24.8    24.6    24.4    24.1    23.8
 1990 061    82    25.6    25.6    25.5    25.3    25.1    24.9    24.7    24.4    24.1    23.8
 1990 062    83    26.1    26.1    25.9    25.8    25.5    25.3    25.1    24.8    24.5    24.1
 1990 063    84    26.5    26.5    26.3    26.1    25.9    25.6    25.4    25.1    24.8    24.4
 1990 064    85    26.4    26.3    26.2    26.0    25.8    25.5    25.3    25.0    24.6    24.3
 1990 065    86    26.0    25.9    25.8    25.6    25.4    25.2    24.9    24.7    24.4    24.0
 1990 066    87    25.6    25.6    25.5    25.3    25.1    24.9    24.7    24.4    24.1    23.8
 1990 067    88    25.2    25.1    25.0    24.9    24.7    24.5    24.3    24.1    23.8    23.5
 1990 068    89    24.6    24.6    24.5    24.4    24.2    24.0    23.8    23.7    23.4    23.2
 1990 069    90    24.2    24.2    24.1    24.0    23.8    23.6    23.5    23.3    23.1    22.9
 1990 070    91    23.8    23.8    23.7    23.6    23.5    23.3    23.2    23.0    22.8    22.6
 1990 071    92    23.5    23.5    23.4    23.3    23.2    23.0    22.9    22.8    22.6    22.4
 1990 072    93    22.8    22.8    22.7    22.6    22.6    22.4    22.3    22.2    22.1    22.0
 1990 073    94    22.3    22.3    22.2    22.1    22.1    22.0    21.9    21.8    21.7    21.6
 1990 074    95    22.5    22.4    22.4    22.3    22.2    22.1    22.0    22.0    21.8    21.7
 1990 075    96    23.1    23.0    23.0    22.9    22.8    22.6    22.5    22.4    22.3    22.1
 1990 076    97    23.8    23.7    23.7    23.5    23.4    23.3    23.1    23.0    22.8    22.6
 1990 077    98    24.8    24.8    24.7    24.5    24.3    24.1    24.0    23.8    23.5    23.2
 1990 078    99    26.3    26.2    26.1    25.9    25.6    25.4    25.1    24.9    24.5    24.1
 1990 079   100    27.7    27.7    27.5    27.2    27.0    26.6    26.3    26.0    25.5    25.1
 1990 080   101    28.8    28.7    28.5    28.2    27.9    27.5    27.2    26.8    26.3    25.7
 1990 081   102    29.4    29.3    29.1    28.8    28.5    28.1    27.7    27.3    26.7    26.1
 1990 082   103    29.9    29.8    29.6    29.3    28.9    28.5    28.1    27.7    27.1    26.5
 1990 083   104    30.0    30.0    29.7    29.4    29.0    28.6    28.2    27.8    27.2    26.5
 1990 084   105    29.7    29.6    29.3    29.0    28.7    28.3    27.9    27.4    26.9    26.3
 1990 085   106    29.1    29.0    28.8    28.5    28.1    27.8    27.4    27.0    26.5    25.9
 1990 086   107    28.6    28.6    28.4    28.1    27.8    27.4    27.1    26.7    26.2    25.6
 1990 087   108    28.3    28.2    28.0    27.7    27.4    27.1    26.7    26.4    25.9    25.4
 1990 088   109    27.3    27.2    27.0    26.8    26.5    26.2    25.9    25.6    25.2    24.7
 1990 089   110    26.5    26.4    26.2    26.0    25.8    25.5    25.3    25.0    24.6    24.2
 1990 090   111    25.6    25.6    25.4    25.3    25.1    24.8    24.6    24.4    24.0    23.7
 1990 091   112    24.7    24.7    24.6    24.4    24.3    24.1    23.9    23.7    23.4    23.1
 1990 092   113    24.2    24.1    24.0    23.9    23.8    23.6    23.4    23.2    23.0    22.8
 1990 093   114    24.7    24.6    24.5    24.4    24.2    24.0    23.8    23.6    23.3    23.1
 1990 094   115    25.5    25.4    25.3    25.1    24.9    24.7    24.5    24.2    23.9    23.6
 1990 095   116    26.4    26.4    26.2    26.0    25.8    25.5    25.2    25.0    24.6    24.2
 1990 096   117    27.2    27.2    27.0    26.8    26.5    26.2    25.9    25.6    25.1    24.7
 1990 097   118    27.5    27.4    27.3    27.0    26.7    26.4    26.1    25.8    25.3    24.9
 1990 098   119    27.9    27.8    27.6    27.4    27.1    26.8    26.5    26.2    25.7    25.3
 1990 099   120    28.1    28.0    27.8    27.6    27.3    27.0    26.7    26.3    25.9    25.4
 1990 100   121    28.7    28.6    28.4    28.2    27.9    27.5    27.2    26.8    26.3    25.8
 1990 101   122    29.8    29.8    29.5    29.2    28.9    28.5    28.1    27.7    27.1    26.5
 1990 102   123    31.2    31.1    30.8    30.5    30.1    29.6    29.2    28.7    28.0    27.3
 1990 103   124    32.1    32.0    31.7    31.4    30.9    30.4    29.9    29.4    28.7    27.9
 1990 104   125    32.9    32.8    32.5    32.1    31.6    31.1    30.6    30.0    29.2    28.4
 1990 105   126    33.8    33.7    33.4    33.0    32.5    31.9    31.3    30.7    29.9    29.0
 1990 106   127    34.1    34.0    33.7    33.2    32.7    32.1    31.5    30.9    30.1    29.2
