*SOIL INORGANIC N BALANCE

*DSSAT Cropping System Model Ver. 4.5.1.014 -Release      JAN 29, 2013; 15:02:32
                                                                                
*RUN   1        : Irrigated + Nitrogen      WHAPS045 UFMX8902    3              
 MODEL          : WHAPS045 - Wheat                                              
 EXPERIMENT     : UFMX8902 WH  Mexi (NWheat migration to DSSAT)                 
 DATA PATH      : C:\DSSAT45\WHEAT\                                             
 TREATMENT  3   : Irrigated + Nitrogen      WHAPS045                            
  
!               ----------- STATE VARIABLES -----------  --- ADDED ----   --------------- REMOVED TODAY ---------------     DAILY     CUMUL
@YEAR DOY  DAS      NO3     NH4   TUREA  FLOODN  ALGFIX   AFERT  AMINER    RLCH    RNOX    RNUP    RAML    RNRO  RIMMOB      DBAL      CBAL
 1989 344    0   46.069  60.445   0.000   0.000   0.000   0.000   0.000   0.000   0.000   0.000   0.000   0.000   0.000     0.000     0.000
 1989 345    1   51.629 128.550  78.802   0.000   0.000 150.000   3.173   0.000   0.000   0.000   0.000   0.000   0.705     0.000     0.000
 1989 346    2  134.634  82.888  41.949   0.000   0.000   0.000   5.863   0.000   0.000   0.000   0.000   0.000   5.374     0.000     0.000
 1989 347    3  166.158  71.206  22.759   0.000   0.000   0.000   5.285   0.000   0.000   0.000   0.000   0.000   4.633     0.000     0.000
 1989 348    4  185.589  62.686  12.550   0.000   0.000   0.000   5.040   0.000   0.000   0.000   0.000   0.000   4.337     0.000     0.000
 1989 349    5  196.793  57.708   7.067   0.000   0.000   0.000   4.755   0.000   0.000   0.000   0.000   0.000   4.012     0.000     0.000
 1989 350    6  203.900  54.444   4.039   0.000   0.000   0.000   4.423   0.000   0.000   0.000   0.000   0.000   3.608     0.000     0.000
 1989 351    7  208.679  52.223   2.344   0.000   0.000   0.000   4.081   0.000   0.000   0.000   0.000   0.000   3.218     0.000     0.000
 1989 352    8  212.073  50.646   1.392   0.000   0.000   0.000   3.728   0.000   0.000   0.000   0.000   0.000   2.864     0.000     0.000
 1989 353    9  214.751  49.409   0.837   0.000   0.000   0.000   3.426   0.000   0.000   0.000   0.000   0.000   2.539     0.000     0.000
 1989 354   10  216.957  48.333   0.505   0.000   0.000   0.000   3.200   0.000   0.000   0.127   0.000   0.000   2.275     0.000     0.000
 1989 355   11  218.819  47.321   0.306   0.000   0.000   0.000   2.948   0.000   0.000   0.304   0.000   0.000   1.993     0.000     0.000
 1989 356   12  220.362  46.448   0.189   0.000   0.000   0.000   2.808   0.000   0.000   0.444   0.000   0.000   1.810     0.000     0.000
 1989 357   13  221.913  45.516   0.123   0.000   0.000   0.000   2.809   0.000   0.000   0.532   0.000   0.000   1.724     0.000     0.000
 1989 358   14  223.393  44.539   0.084   0.000   0.000   0.000   2.737   0.000   0.000   0.688   0.000   0.000   1.585     0.000     0.000
 1989 359   15  225.107  43.630   0.060   0.000   0.000   0.000   2.659   0.000   0.000   0.428   0.000   0.000   1.451     0.000     0.000
 1989 360   16  226.837  42.722   0.044   0.000   0.000   0.000   2.551   0.000   0.000   0.438   0.000   0.000   1.307     0.000     0.000
 1989 361   17  228.735  41.861   0.034   0.000   0.000   0.000   2.458   0.000   0.000   0.252   0.000   0.000   1.180     0.000     0.000
 1989 362   18  230.574  41.036   0.026   0.000   0.000   0.000   2.273   0.000   0.000   0.249   0.000   0.000   1.017     0.000     0.000
 1989 363   19  232.305  40.221   0.021   0.000   0.000   0.000   2.125   0.000   0.000   0.330   0.000   0.000   0.886     0.000     0.000
 1989 364   20  233.924  39.450   0.017   0.000   0.000   0.000   1.941   0.000   0.000   0.347   0.000   0.000   0.749     0.000     0.000
 1989 365   21  235.384  38.724   0.014   0.000   0.000   0.000   1.753   0.000   0.000   0.400   0.000   0.000   0.622     0.000     0.000
 1990 001   22  236.489  37.996   0.000   0.000   0.000   0.000   1.558   0.000   0.000   0.692   0.000   0.000   0.503     0.000     0.000
 1990 002   23  237.380  37.254   0.000   0.000   0.000   0.000   1.453   0.000   0.000   0.879   0.000   0.000   0.424     0.000     0.000
 1990 003   24  238.114  36.521   0.000   0.000   0.000   0.000   1.351   0.000   0.000   0.975   0.000   0.000   0.376     0.000     0.000
 1990 004   25  238.657  35.790   0.000   0.000   0.000   0.000   1.294   0.000   0.000   1.120   0.000   0.000   0.362     0.000     0.000
 1990 005   26  239.063  35.094   0.000   0.000   0.000   0.000   1.209   0.000   0.000   1.161   0.000   0.000   0.338     0.000     0.000
 1990 006   27  239.054  34.353   0.000   0.000   0.000   0.000   1.160   0.000   0.000   1.587   0.000   0.000   0.324     0.000     0.000
 1990 007   28  238.656  33.582   0.000   0.000   0.000   0.000   1.070   0.000   0.000   1.939   0.000   0.000   0.300     0.000     0.000
 1990 008   29  238.197  32.838   0.000   0.000   0.000   0.000   1.023   0.000   0.000   1.939   0.000   0.000   0.288     0.000     0.000
 1990 009   30  237.751  32.100   0.000   0.000   0.000   0.000   0.984   0.000   0.000   1.885   0.000   0.000   0.281     0.000     0.000
 1990 010   31  237.421  31.333   0.000   0.000   0.000   0.000   0.981   0.000   0.000   1.789   0.000   0.000   0.289     0.000     0.000
 1990 011   32  237.226  30.515   0.000   0.000   0.000   0.000   0.970   0.000   0.000   1.683   0.000   0.000   0.299     0.000     0.000
 1990 012   33  237.182  29.672   0.000   0.000   0.000   0.000   0.924   0.000   0.000   1.507   0.000   0.000   0.305     0.000     0.000
 1990 013   34  237.192  28.813   0.000   0.000   0.000   0.000   0.846   0.000   0.000   1.395   0.000   0.000   0.299     0.000     0.000
 1990 014   35  232.259  28.190   0.000   0.000   0.000   0.000   3.845   0.000   0.000   6.000   0.000   0.000   3.401     0.000     0.000
 1990 015   36  227.676  27.694   0.000   0.000   0.000   0.000   5.008   0.000   0.000   6.000   0.000   0.000   4.086     0.000     0.000
 1990 016   37  223.196  27.215   0.000   0.000   0.000   0.000   4.973   0.000   0.000   6.000   0.000   0.000   3.932     0.000     0.000
 1990 017   38  218.692  26.847   0.000   0.000   0.000   0.000   4.310   0.000   0.000   6.000   0.000   0.000   3.182     0.000     0.000
 1990 018   39  214.277  26.294   0.000   0.000   0.000   0.000   3.620   0.000   0.000   6.000   0.000   0.000   2.588     0.000     0.000
 1990 019   40  211.055  25.838   0.000   0.000   0.000   0.000   2.939   0.000   0.000   4.605   0.000   0.000   2.013     0.000     0.000
 1990 020   41  208.113  25.374   0.000   0.000   0.000   0.000   2.356   0.000   0.000   4.203   0.000   0.000   1.560     0.000     0.000
 1990 021   42  204.883  24.879   0.000   0.000   0.000   0.000   1.928   0.000   0.000   4.406   0.000   0.000   1.246     0.000     0.000
 1990 022   43  200.980  24.342   0.000   0.000   0.000   0.000   1.605   0.000   0.000   5.043   0.000   0.000   1.002     0.000     0.000
 1990 023   44  196.692  23.752   0.000   0.000   0.000   0.000   1.310   0.000   0.000   5.400   0.000   0.000   0.788     0.000     0.000
 1990 024   45  193.166  23.203   0.000   0.000   0.000   0.000   1.165   0.000   0.000   4.537   0.000   0.000   0.703     0.000     0.000
 1990 025   46  189.006  22.609   0.000   0.000   0.000   0.000   1.118   0.000   0.000   5.205   0.000   0.000   0.666     0.000     0.000
 1990 026   47  185.173  22.018   0.000   0.000   0.000   0.000   1.049   0.000   0.000   4.852   0.000   0.000   0.622     0.000     0.000
 1990 027   48  183.148  21.511   0.000   0.000   0.000   0.000   0.908   0.000   0.000   2.884   0.000   0.000   0.556     0.000     0.000
 1990 028   49  182.220  21.031   0.000   0.000   0.000   0.000   0.756   0.000   0.000   1.680   0.000   0.000   0.484     0.000     0.000
 1990 029   50  181.728  20.553   0.000   0.000   0.000   0.000   0.646   0.000   0.000   1.189   0.000   0.000   0.426     0.000     0.000
 1990 030   51  181.388  20.092   0.000   0.000   0.000   0.000   0.555   0.000   0.000   0.987   0.000   0.000   0.369     0.000     0.000
 1990 031   52  181.077  19.659   0.000   0.000   0.000   0.000   0.472   0.000   0.000   0.905   0.000   0.000   0.311     0.000     0.000
 1990 032   53  180.725  19.259   0.000   0.000   0.000   0.000   0.413   0.000   0.000   0.896   0.000   0.000   0.269     0.000     0.000
 1990 033   54  180.248  18.891   0.000   0.000   0.000   0.000   0.359   0.000   0.000   0.977   0.000   0.000   0.226     0.000     0.000
 1990 034   55  179.649  18.537   0.000   0.000   0.000   0.000   0.307   0.000   0.000   1.074   0.000   0.000   0.186     0.000     0.000
 1990 035   56  178.955  18.185   0.000   0.000   0.000   0.000   0.261   0.000   0.000   1.155   0.000   0.000   0.152     0.000     0.000
 1990 036   57  178.194  17.828   0.000   0.000   0.000   0.000   0.222   0.000   0.000   1.217   0.000   0.000   0.123     0.000     0.000
 1990 037   58  177.392  17.454   0.000   0.000   0.000   0.000   0.195   0.000   0.000   1.268   0.000   0.000   0.103     0.000     0.000
 1990 038   59  171.603  17.462   0.000   0.000   0.000   0.000   2.141   0.000   0.000   6.000   0.000   0.000   1.922     0.000     0.000
 1990 039   60  166.130  17.701   0.000   0.000   0.000   0.000   3.328   0.000   0.000   6.000   0.000   0.000   2.562     0.000     0.000
 1990 040   61  160.883  38.664  29.297   0.000   0.000  50.000   3.351   0.000   0.000   6.000   0.000   0.000   2.338     0.000     0.000
 1990 041   62  173.772  32.881  17.139   0.000   0.000   0.000   3.042   0.000   0.000   6.000   0.000   0.000   2.095     0.000     0.000
 1990 042   63  182.149  26.598   9.926   0.000   0.000   0.000   2.651   0.000   0.000   6.000   0.000   0.000   1.771     0.000     0.000
 1990 043   64  184.969  22.105   6.409   0.000   0.000   0.000   2.010   0.000   0.000   6.000   0.000   0.000   1.199     0.000     0.000
 1990 044   65  184.519  20.084   4.760   0.000   0.000   0.000   1.350   0.000   0.000   4.713   0.000   0.000   0.756     0.000     0.000
 1990 045   66  185.349  18.776   3.722   0.000   0.000   0.000   0.908   0.000   0.000   1.882   0.000   0.000   0.542     0.000     0.000
 1990 046   67  186.074  17.855   2.921   0.000   0.000   0.000   0.763   0.000   0.000   1.257   0.000   0.000   0.503     0.000     0.000
 1990 047   68  186.418  17.267   2.298   0.000   0.000   0.000   0.696   0.000   0.000   1.109   0.000   0.000   0.454     0.000     0.000
 1990 048   69  186.616  16.832   1.815   0.000   0.000   0.000   0.611   0.000   0.000   0.935   0.000   0.000   0.397     0.000     0.000
 1990 049   70  186.867  16.456   1.439   0.000   0.000   0.000   0.516   0.000   0.000   0.672   0.000   0.000   0.344     0.000     0.000
 1990 050   71  187.165  16.085   1.146   0.000   0.000   0.000   0.449   0.000   0.000   0.506   0.000   0.000   0.310     0.000     0.000
 1990 051   72  187.467  15.682   0.917   0.000   0.000   0.000   0.423   0.000   0.000   0.451   0.000   0.000   0.302     0.000     0.000
 1990 052   73  187.720  15.268   0.737   0.000   0.000   0.000   0.423   0.000   0.000   0.462   0.000   0.000   0.302     0.000     0.000
 1990 053   74  187.893  14.846   0.596   0.000   0.000   0.000   0.427   0.000   0.000   0.513   0.000   0.000   0.303     0.000     0.000
 1990 054   75  187.973  14.429   0.484   0.000   0.000   0.000   0.427   0.000   0.000   0.576   0.000   0.000   0.300     0.000     0.000
 1990 055   76  187.972  14.003   0.395   0.000   0.000   0.000   0.429   0.000   0.000   0.645   0.000   0.000   0.300     0.000     0.000
 1990 056   77  187.950  13.596   0.324   0.000   0.000   0.000   0.430   0.000   0.000   0.631   0.000   0.000   0.298     0.000     0.000
 1990 057   78  187.932  13.213   0.268   0.000   0.000   0.000   0.433   0.000   0.000   0.593   0.000   0.000   0.297     0.000     0.000
 1990 058   79  187.894  12.860   0.223   0.000   0.000   0.000   0.428   0.000   0.000   0.576   0.000   0.000   0.287     0.000     0.000
 1990 059   80  187.843  12.530   0.186   0.000   0.000   0.000   0.414   0.000   0.000   0.560   0.000   0.000   0.272     0.000     0.000
 1990 060   81  187.776  20.217  42.164   0.000   0.000  50.000   0.389   0.000   0.000   0.543   0.000   0.000   0.247     0.000     0.000
 1990 061   82  192.129  21.946  35.692   0.000   0.000   0.000   0.352   0.000   0.000   0.528   0.000   0.000   0.214     0.000     0.000
 1990 062   83  197.432  21.505  30.449   0.000   0.000   0.000   0.312   0.000   0.000   0.512   0.000   0.000   0.181     0.000     0.000
 1990 063   84  202.638  20.184  26.193   0.000   0.000   0.000   0.276   0.000   0.000   0.497   0.000   0.000   0.150     0.000     0.000
 1990 064   85  207.234  18.713  22.704   0.000   0.000   0.000   0.242   0.000   0.000   0.483   0.000   0.000   0.123     0.000     0.000
 1990 065   86  210.996  17.480  19.812   0.000   0.000   0.000   0.227   0.000   0.000   0.469   0.000   0.000   0.122     0.000     0.000
 1990 066   87  214.027  16.497  17.412   0.000   0.000   0.000   0.223   0.000   0.000   0.455   0.000   0.000   0.119     0.000     0.000
 1990 067   88  216.495  15.699  15.402   0.000   0.000   0.000   0.218   0.000   0.000   0.442   0.000   0.000   0.117     0.000     0.000
 1990 068   89  218.496  15.146  13.625   0.000   0.000   0.000   0.213   0.000   0.000   0.429   0.000   0.000   0.113     0.000     0.000
 1990 069   90  220.176  14.720  12.052   0.000   0.000   0.000   0.206   0.000   0.000   0.417   0.000   0.000   0.109     0.000     0.000
 1990 070   91  221.644  14.333  10.661   0.000   0.000   0.000   0.201   0.000   0.000   0.405   0.000   0.000   0.106     0.000     0.000
 1990 071   92  222.908  13.991   9.430   0.000   0.000   0.000   0.196   0.000   0.000   0.400   0.000   0.000   0.104     0.000     0.000
 1990 072   93  223.998  13.668   8.342   0.000   0.000   0.000   0.192   0.000   0.000   0.412   0.000   0.000   0.101     0.000     0.000
 1990 073   94  224.909  13.388   7.379   0.000   0.000   0.000   0.185   0.000   0.000   0.420   0.000   0.000   0.097     0.000     0.000
 1990 074   95  225.679  13.122   6.527   0.000   0.000   0.000   0.179   0.000   0.000   0.433   0.000   0.000   0.093     0.000     0.000
 1990 075   96  226.374  12.810   5.774   0.000   0.000   0.000   0.179   0.000   0.000   0.455   0.000   0.000   0.094     0.000     0.000
 1990 076   97  227.013  12.439   5.107   0.000   0.000   0.000   0.184   0.000   0.000   0.484   0.000   0.000   0.098     0.000     0.000
 1990 077   98  227.588  12.022   4.518   0.000   0.000   0.000   0.191   0.000   0.000   0.521   0.000   0.000   0.102     0.000     0.000
 1990 078   99  228.109  11.554   3.996   0.000   0.000   0.000   0.202   0.000   0.000   0.562   0.000   0.000   0.109     0.000     0.000
 1990 079  100  228.588  11.029   3.535   0.000   0.000   0.000   0.218   0.000   0.000   0.608   0.000   0.000   0.118     0.000     0.000
 1990 080  101  229.007  10.470   3.127   0.000   0.000   0.000   0.236   0.000   0.000   0.656   0.000   0.000   0.128     0.000     0.000
 1990 081  102  229.332  12.689   0.000   0.000   0.000   0.000   0.250   0.000   0.000   0.698   0.000   0.000   0.135     0.000     0.000
 1990 082  103  230.323  11.075   0.000   0.000   0.000   0.000   0.259   0.000   0.000   0.742   0.000   0.000   0.139     0.000     0.000
 1990 083  104  230.930   9.853   0.000   0.000   0.000   0.000   0.266   0.000   0.000   0.737   0.000   0.000   0.143     0.000     0.000
 1990 084  105  231.250   8.939   0.000   0.000   0.000   0.000   0.268   0.000   0.000   0.719   0.000   0.000   0.143     0.000     0.000
 1990 085  106  231.353   8.259   0.000   0.000   0.000   0.000   0.264   0.000   0.000   0.701   0.000   0.000   0.140     0.000     0.000
 1990 086  107  231.313   7.737   0.000   0.000   0.000   0.000   0.257   0.000   0.000   0.683   0.000   0.000   0.136     0.000     0.000
 1990 087  108  231.184   7.317   0.000   0.000   0.000   0.000   0.250   0.000   0.000   0.666   0.000   0.000   0.132     0.000     0.000
 1990 088  109  230.999   6.968   0.000   0.000   0.000   0.000   0.245   0.000   0.000   0.650   0.000   0.000   0.129     0.000     0.000
 1990 089  110  230.765   6.680   0.000   0.000   0.000   0.000   0.234   0.000   0.000   0.633   0.000   0.000   0.122     0.000     0.000
 1990 090  111  230.503   6.432   0.000   0.000   0.000   0.000   0.223   0.000   0.000   0.617   0.000   0.000   0.116     0.000     0.000
 1990 091  112  230.222   6.213   0.000   0.000   0.000   0.000   0.213   0.000   0.000   0.602   0.000   0.000   0.111     0.000     0.000
 1990 092  113  229.928   6.018   0.000   0.000   0.000   0.000   0.203   0.000   0.000   0.587   0.000   0.000   0.105     0.000     0.000
 1990 093  114  229.630   5.838   0.000   0.000   0.000   0.000   0.195   0.000   0.000   0.572   0.000   0.000   0.101     0.000     0.000
 1990 094  115  229.339   5.665   0.000   0.000   0.000   0.000   0.198   0.000   0.000   0.557   0.000   0.000   0.104     0.000     0.000
 1990 095  116  229.058   5.499   0.000   0.000   0.000   0.000   0.206   0.000   0.000   0.543   0.000   0.000   0.109     0.000     0.000
 1990 096  117  228.789   5.340   0.000   0.000   0.000   0.000   0.217   0.000   0.000   0.530   0.000   0.000   0.115     0.000     0.000
 1990 097  118  228.530   5.188   0.000   0.000   0.000   0.000   0.226   0.000   0.000   0.517   0.000   0.000   0.120     0.000     0.000
 1990 098  119  222.595   5.482   0.000   0.000   0.000   0.000   3.000   0.000   0.000   6.000   0.000   0.000   2.641     0.000     0.000
 1990 099  120  220.276   6.632   0.000   0.000   0.000   0.000   4.710   0.000   0.000   2.674   0.000   0.000   3.205     0.000     0.000
 1990 100  121  218.808   6.965   0.000   0.000   0.000   0.000   4.635   0.000   0.000   2.975   0.000   0.000   2.795     0.000     0.000
 1990 101  122  217.582   6.822   0.000   0.000   0.000   0.000   3.831   0.000   0.000   3.107   0.000   0.000   2.094     0.000     0.000
 1990 102  123  216.123   6.475   0.000   0.000   0.000   0.000   2.889   0.000   0.000   3.214   0.000   0.000   1.481     0.000     0.000
 1990 103  124  217.204   6.342   0.000   0.000   0.000   0.000   2.060   0.000   0.000   0.115   0.000   0.000   0.997     0.000     0.000
 1990 104  125  218.336   6.008   0.000   0.000   0.000   0.000   1.670   0.000   0.000   0.000   0.000   0.000   0.873     0.000     0.000
 1990 105  126  219.172   5.920   0.000   0.000   0.000   0.000   1.536   0.000   0.000   0.000   0.000   0.000   0.787     0.000     0.000
 1990 106  127  220.017   5.793   0.000   0.000   0.000   0.000   1.427   0.000   0.000   0.000   0.000   0.000   0.709     0.000     0.000


!                                        INITIAL Year/Doy      FINAL Year/Doy
!                                                1989/345            1990/106
!SOIL INORGANIC N BALANCE                       -----------kg N/ha-----------

!   Soil NO3                                        46.07              220.02
!   Soil NH4                                        60.44                5.79
!   Soil Urea                                        0.00                0.00

!   Added to / Removed from Soil:
!   Fertilizer N                                   250.00
!   Mineralized N                                  185.38
!   Leached NO3                                                          0.00
!   N Denitrified                                                        0.00
!   N Uptake From Soil                                                 196.63
!   Ammonia volatilization                                               0.00
!   N immobilized                                                      119.46

!   Total N balance                                541.89              541.89
!   Balance                                                             0.000
